@<TRIPOS>MOLECULE
Cpptraj
  126   132     1     0     0
SMALL
No Charge or Current Charge


@<TRIPOS>ATOM
      1 C1          13.5990    17.7250    33.0610 C.3        1 MGO       0.304529
      2 H1          12.5430    18.0280    32.9160 H          1 MGO       0.090782
      3 O1          14.4390    18.8690    33.4350 O.3        1 MGO      -0.453070
      4 C2          13.6590    16.7020    34.1900 C.3        1 MGO       0.092199
      5 H2          13.0180    15.8470    33.9550 H          1 MGO       0.102926
      6 O2          13.2190    17.3210    35.4110 O.3        1 MGO      -0.586639
      7 HO2         13.2840    18.2850    35.3270 H          1 MGO       0.425065
      8 C3          15.0850    16.2450    34.4140 C.3        1 MGO       0.093211
      9 H3          15.6820    17.0890    34.7700 H          1 MGO       0.064468
     10 O3          15.0400    15.2090    35.4080 O.3        1 MGO      -0.592567
     11 HO3         14.3610    15.4690    36.0460 H          1 MGO       0.421017
     12 C4          15.6930    15.6900    33.1340 C.3        1 MGO       0.127621
     13 H4          15.2110    14.7390    32.8910 H          1 MGO       0.080661
     14 C5          15.5450    16.6750    31.9590 C.3        1 MGO       0.104343
     15 H5          16.1330    17.5630    32.2010 H          1 MGO       0.068516
     16 O5          14.1220    17.0920    31.8370 O.3        1 MGO      -0.427383
     17 C6          16.0380    16.2050    30.5830 C.3        1 MGO       0.141081
     18 H61         17.0790    16.5070    30.4430 H          1 MGO       0.057384
     19 H62         15.4430    16.6670    29.7920 H          1 MGO       0.057384
     20 O6          15.9580    14.7780    30.4720 O.3        1 MGO      -0.593555
     21 HO6         16.7930    14.4060    30.7840 H          1 MGO       0.422027
     22 C1          14.5730    23.0110    33.0600 C.3        2 MGO       0.304529
     23 H1          14.3080    24.0770    32.9150 H          2 MGO       0.090782
     24 O1          15.9840    22.8560    33.4340 O.3        2 MGO      -0.453070
     25 C2          13.7160    22.4490    34.1900 C.3        2 MGO       0.092199
     26 H2          12.6560    22.5770    33.9540 H          2 MGO       0.102926
     27 O2          14.0340    23.1390    35.4100 O.3        2 MGO      -0.586639
     28 HO2         14.9000    23.5650    35.3260 H          2 MGO       0.425065
     29 C3          14.0350    20.9850    34.4140 C.3        2 MGO       0.093211
     30 H3          15.0640    20.8900    34.7700 H          2 MGO       0.064468
     31 O3          13.1140    20.5050    35.4080 O.3        2 MGO      -0.592567
     32 HO3         13.0010    21.2240    36.0460 H          2 MGO       0.421017
     33 C4          13.8570    20.1800    33.1340 C.3        2 MGO       0.127621
     34 H4          12.7930    20.1220    32.8910 H          2 MGO       0.080661
     35 C5          14.6360    20.8010    31.9590 C.3        2 MGO       0.104343
     36 H5          15.6990    20.7350    32.2010 H          2 MGO       0.068516
     37 O5          14.2850    22.2410    31.8360 O.3        2 MGO      -0.427383
     38 C6          14.4750    20.1380    30.5830 C.3        2 MGO       0.141081
     39 H61         15.2560    19.3880    30.4420 H          2 MGO       0.057384
     40 H62         14.5770    20.8850    29.7920 H          2 MGO       0.057384
     41 O6          13.2000    19.4940    30.4720 O.3        2 MGO      -0.593555
     42 HO6         13.2950    18.5850    30.7850 H          2 MGO       0.422027
     43 C1          19.6380    24.8110    33.0600 C.3        3 MGO       0.304529
     44 H1          20.4270    25.5740    32.9140 H          3 MGO       0.090782
     45 O1          20.2090    23.5110    33.4340 O.3        3 MGO      -0.453070
     46 C2          18.7220    25.2710    34.1890 C.3        3 MGO       0.092199
     47 H2          18.3020    26.2530    33.9530 H          3 MGO       0.102926
     48 O2          19.4780    25.3430    35.4090 O.3        3 MGO      -0.586639
     49 HO2         20.2800    24.8050    35.3250 H          3 MGO       0.425065
     50 C3          17.6130    24.2640    34.4130 C.3        3 MGO       0.093211
     51 H3          18.0450    23.3250    34.7690 H          3 MGO       0.064468
     52 O3          16.7380    24.8210    35.4080 O.3        3 MGO      -0.592567
     53 HO3         17.3030    25.2790    36.0440 H          3 MGO       0.421017
     54 C4          16.8280    24.0150    33.1330 C.3        3 MGO       0.127621
     55 H4          16.2460    24.9080    32.8890 H          3 MGO       0.080661
     56 C5          17.7550    23.6510    31.9580 C.3        3 MGO       0.104343
     57 H5          18.2300    22.6980    32.2000 H          3 MGO       0.068516
     58 O5          18.8270    24.6740    31.8350 O.3        3 MGO      -0.427383
     59 C6          17.1010    23.4580    30.5830 C.3        3 MGO       0.141081
     60 H61         16.8430    22.4060    30.4420 H          3 MGO       0.057384
     61 H62         17.7990    23.7430    29.7920 H          3 MGO       0.057384
     62 O6          15.9050    24.2410    30.4710 O.3        3 MGO      -0.593555
     63 HO6         15.1670    23.7030    30.7840 H          3 MGO       0.422027
     64 C1          23.7290    21.3260    33.0610 C.3        4 MGO       0.304529
     65 H1          24.7840    21.0220    32.9150 H          4 MGO       0.090782
     66 O1          22.8890    20.1810    33.4340 O.3        4 MGO      -0.453070
     67 C2          23.6700    22.3490    34.1900 C.3        4 MGO       0.092199
     68 H2          24.3110    23.2030    33.9540 H          4 MGO       0.102926
     69 O2          24.1090    21.7300    35.4090 O.3        4 MGO      -0.586639
     70 HO2         24.0440    20.7660    35.3260 H          4 MGO       0.425065
     71 C3          22.2430    22.8050    34.4140 C.3        4 MGO       0.093211
     72 H3          21.6460    21.9610    34.7700 H          4 MGO       0.064468
     73 O3          22.2870    23.8410    35.4080 O.3        4 MGO      -0.592567
     74 HO3         22.9660    23.5810    36.0450 H          4 MGO       0.421017
     75 C4          21.6360    23.3600    33.1330 C.3        4 MGO       0.127621
     76 H4          22.1170    24.3100    32.8900 H          4 MGO       0.080661
     77 C5          21.7830    22.3750    31.9590 C.3        4 MGO       0.104343
     78 H5          21.1950    21.4870    32.2010 H          4 MGO       0.068516
     79 O5          23.2050    21.9580    31.8360 O.3        4 MGO      -0.427383
     80 C6          21.2900    22.8450    30.5830 C.3        4 MGO       0.141081
     81 H61         20.2490    22.5440    30.4420 H          4 MGO       0.057384
     82 H62         21.8850    22.3840    29.7920 H          4 MGO       0.057384
     83 O6          21.3700    24.2710    30.4710 O.3        4 MGO      -0.593555
     84 HO6         20.5340    24.6430    30.7840 H          4 MGO       0.422027
     85 C1          22.7550    16.0390    33.0600 C.3        5 MGO       0.304529
     86 H1          23.0200    14.9740    32.9140 H          5 MGO       0.090782
     87 O1          21.3440    16.1950    33.4340 O.3        5 MGO      -0.453070
     88 C2          23.6120    16.6010    34.1900 C.3        5 MGO       0.092199
     89 H2          24.6720    16.4740    33.9540 H          5 MGO       0.102926
     90 O2          23.2940    15.9110    35.4100 O.3        5 MGO      -0.586639
     91 HO2         22.4280    15.4860    35.3260 H          5 MGO       0.425065
     92 C3          23.2940    18.0650    34.4140 C.3        5 MGO       0.093211
     93 H3          22.2640    18.1600    34.7700 H          5 MGO       0.064468
     94 O3          24.2140    18.5450    35.4080 O.3        5 MGO      -0.592567
     95 HO3         24.3280    17.8270    36.0450 H          5 MGO       0.421017
     96 C4          23.4710    18.8700    33.1330 C.3        5 MGO       0.127621
     97 H4          24.5350    18.9280    32.8910 H          5 MGO       0.080661
     98 C5          22.6920    18.2490    31.9590 C.3        5 MGO       0.104343
     99 H5          21.6290    18.3140    32.2000 H          5 MGO       0.068516
    100 O5          23.0420    16.8090    31.8360 O.3        5 MGO      -0.427383
    101 C6          22.8530    18.9120    30.5830 C.3        5 MGO       0.141081
    102 H61         22.0710    19.6620    30.4420 H          5 MGO       0.057384
    103 H62         22.7500    18.1660    29.7910 H          5 MGO       0.057384
    104 O6          24.1290    19.5560    30.4720 O.3        5 MGO      -0.593555
    105 HO6         24.0320    20.4640    30.7840 H          5 MGO       0.422027
    106 C1          17.6900    14.2390    33.0610 C.3        6 MGO       0.304529
    107 H1          16.9000    13.4760    32.9140 H          6 MGO       0.090782
    108 O1          17.1190    15.5390    33.4350 O.3        6 MGO      -0.453070
    109 C2          18.6060    13.7790    34.1890 C.3        6 MGO       0.092199
    110 H2          19.0260    12.7970    33.9540 H          6 MGO       0.102926
    111 O2          17.8500    13.7080    35.4100 O.3        6 MGO      -0.586639
    112 HO2         17.0480    14.2460    35.3260 H          6 MGO       0.425065
    113 C3          19.7150    14.7860    34.4140 C.3        6 MGO       0.093211
    114 H3          19.2820    15.7250    34.7700 H          6 MGO       0.064468
    115 O3          20.5900    14.2290    35.4080 O.3        6 MGO      -0.592567
    116 HO3         20.0250    13.7710    36.0450 H          6 MGO       0.421017
    117 C4          20.4990    15.0350    33.1330 C.3        6 MGO       0.127621
    118 H4          21.0810    14.1420    32.8900 H          6 MGO       0.080661
    119 C5          19.5730    15.4000    31.9590 C.3        6 MGO       0.104343
    120 H5          19.0980    16.3530    32.2010 H          6 MGO       0.068516
    121 O5          18.5000    14.3760    31.8360 O.3        6 MGO      -0.427383
    122 C6          20.2260    15.5930    30.5830 C.3        6 MGO       0.141081
    123 H61         20.4850    16.6440    30.4420 H          6 MGO       0.057384
    124 H62         19.5290    15.3080    29.7920 H          6 MGO       0.057384
    125 O6          21.4220    14.8090    30.4720 O.3        6 MGO      -0.593555
    126 HO6         22.1610    15.3470    30.7840 H          6 MGO       0.422027
@<TRIPOS>BOND
     1    17    20 1   
     2    14    16 1   
     3    14    17 1   
     4    12    14 1   
     5    12   108 1   
     6     8    10 1   
     7     8    12 1   
     8     4     6 1   
     9     4     8 1   
    10     3    33 1   
    11     1     3 1   
    12     1     4 1   
    13     1    16 1   
    14    38    41 1   
    15    35    37 1   
    16    35    38 1   
    17    33    35 1   
    18    29    31 1   
    19    29    33 1   
    20    25    27 1   
    21    25    29 1   
    22    24    54 1   
    23    22    24 1   
    24    22    25 1   
    25    22    37 1   
    26    59    62 1   
    27    56    58 1   
    28    56    59 1   
    29    54    56 1   
    30    50    52 1   
    31    50    54 1   
    32    46    48 1   
    33    46    50 1   
    34    45    75 1   
    35    43    45 1   
    36    43    46 1   
    37    43    58 1   
    38    80    83 1   
    39    77    79 1   
    40    77    80 1   
    41    75    77 1   
    42    71    73 1   
    43    71    75 1   
    44    67    69 1   
    45    67    71 1   
    46    66    96 1   
    47    64    66 1   
    48    64    67 1   
    49    64    79 1   
    50   101   104 1   
    51    98   100 1   
    52    98   101 1   
    53    96    98 1   
    54    92    94 1   
    55    92    96 1   
    56    88    90 1   
    57    88    92 1   
    58    87   117 1   
    59    85    87 1   
    60    85    88 1   
    61    85   100 1   
    62   122   125 1   
    63   119   121 1   
    64   119   122 1   
    65   117   119 1   
    66   113   115 1   
    67   113   117 1   
    68   109   111 1   
    69   109   113 1   
    70   106   108 1   
    71   106   109 1   
    72   106   121 1   
    73    20    21 1   
    74    17    18 1   
    75    17    19 1   
    76    14    15 1   
    77    12    13 1   
    78    10    11 1   
    79     8     9 1   
    80     6     7 1   
    81     4     5 1   
    82     1     2 1   
    83    41    42 1   
    84    38    39 1   
    85    38    40 1   
    86    35    36 1   
    87    33    34 1   
    88    31    32 1   
    89    29    30 1   
    90    27    28 1   
    91    25    26 1   
    92    22    23 1   
    93    62    63 1   
    94    59    60 1   
    95    59    61 1   
    96    56    57 1   
    97    54    55 1   
    98    52    53 1   
    99    50    51 1   
   100    48    49 1   
   101    46    47 1   
   102    43    44 1   
   103    83    84 1   
   104    80    81 1   
   105    80    82 1   
   106    77    78 1   
   107    75    76 1   
   108    73    74 1   
   109    71    72 1   
   110    69    70 1   
   111    67    68 1   
   112    64    65 1   
   113   104   105 1   
   114   101   102 1   
   115   101   103 1   
   116    98    99 1   
   117    96    97 1   
   118    94    95 1   
   119    92    93 1   
   120    90    91 1   
   121    88    89 1   
   122    85    86 1   
   123   125   126 1   
   124   122   123 1   
   125   122   124 1   
   126   119   120 1   
   127   117   118 1   
   128   115   116 1   
   129   113   114 1   
   130   111   112 1   
   131   109   110 1   
   132   106   107 1   
@<TRIPOS>SUBSTRUCTURE
     1 MGO         1 TEMP              0 ****  ****    0 ROOT
