@<TRIPOS>MOLECULE
Cpptraj generated mol2 file.
   29    28     1     0     0
SMALL
USER_CHARGES


@<TRIPOS>ATOM
      1 C1         18.6640   19.5250   30.5830 c3         1 OAM     -0.095100
      2 H3         18.4810   18.4480   30.5450 hc         1 OAM      0.038367
      3 H4         18.2130   19.9810   29.6990 hc         1 OAM      0.038367
      4 H5         19.7430   19.6960   30.5450 hc         1 OAM      0.038367
      5 C2         18.0620   20.1340   31.8630 c3         1 OAM     -0.079400
      6 H6         16.9810   19.9720   31.8630 hc         1 OAM      0.041700
      7 H7         18.2350   21.2130   31.8630 hc         1 OAM      0.041700
      8 C3         18.6820   19.5060   33.1290 c3         1 OAM     -0.079400
      9 H8         18.5100   18.4270   33.1230 hc         1 OAM      0.043700
     10 H9         19.7640   19.6670   33.1230 hc         1 OAM      0.043700
     11 C4         18.0780   20.1170   34.4100 c3         1 OAM     -0.079400
     12 H10        16.9980   19.9560   34.4150 hc         1 OAM      0.045700
     13 H11        18.2520   21.1960   34.4150 hc         1 OAM      0.045700
     14 C5         18.6990   19.4900   35.6760 c3         1 OAM     -0.079400
     15 H12        18.5260   18.4100   35.6700 hc         1 OAM      0.049700
     16 H13        19.7800   19.6510   35.6700 hc         1 OAM      0.049700
     17 C6         18.0950   20.1010   36.9580 c3         1 OAM     -0.079400
     18 H14        17.0130   19.9400   36.9630 hc         1 OAM      0.057700
     19 H15        18.2670   21.1800   36.9630 hc         1 OAM      0.057700
     20 C7         18.7140   19.4740   38.2240 c3         1 OAM     -0.111400
     21 H16        18.5400   18.3940   38.2210 hc         1 OAM      0.069700
     22 H17        19.7960   19.6360   38.2210 hc         1 OAM      0.069700
     23 C8         18.1020   20.0930   39.4950 c3         1 OAM      0.098800
     24 H18        17.0220   19.9240   39.5070 hx         1 OAM      0.113700
     25 H19        18.2840   21.1710   39.5070 hx         1 OAM      0.113700
     26 N1         18.6640   19.5250   40.7790 n4         1 OAM     -0.839600
     27 H1         18.5010   18.5080   40.8530 hn         1 OAM      0.461800
     28 H2         18.2320   19.9620   41.6100 hn         1 OAM      0.461800
     29 HN11       19.6830   19.6770   40.8530 hn         1 OAM      0.461799
@<TRIPOS>BOND
    1    23    26 1
    2    20    23 1
    3    17    20 1
    4    14    17 1
    5    11    14 1
    6     8    11 1
    7     5     8 1
    8     1     5 1
    9    26    27 1
   10    26    28 1
   11    26    29 1
   12    23    24 1
   13    23    25 1
   14    20    21 1
   15    20    22 1
   16    17    18 1
   17    17    19 1
   18    14    15 1
   19    14    16 1
   20    11    12 1
   21    11    13 1
   22     8     9 1
   23     8    10 1
   24     5     6 1
   25     5     7 1
   26     1     2 1
   27     1     3 1
   28     1     4 1
@<TRIPOS>SUBSTRUCTURE
      1 OAM               1 ****               0 ****  **** 
