@<TRIPOS>MOLECULE
Cpptraj generated mol2 file.
   17    16     1     0     0
SMALL
USER_CHARGES


@<TRIPOS>ATOM
      1 C1         18.8520   19.6940   38.5860 c          1 HX3      0.913353
      2 O1         19.8000   20.3530   38.9840 o          1 HX3     -0.847529
      3 O2         17.8260   19.6190   39.2450 o          1 HX3     -0.847529
      4 C2         18.9540   18.9600   37.2470 c3         1 HX3     -0.187251
      5 H1         18.1920   18.1760   37.1910 hc         1 HX3      0.035690
      6 H2         19.9220   18.4510   37.1900 hc         1 HX3      0.035690
      7 C3         18.8240   19.9030   36.0650 c2         1 HX3     -0.081222
      8 H3         18.6760   20.9530   36.3170 ha         1 HX3      0.140962
      9 C4         18.8780   19.5110   34.7960 c2         1 HX3     -0.271273
     10 H4         19.0260   18.4610   34.5480 ha         1 HX3      0.101972
     11 C5         18.7470   20.4510   33.6170 c3         1 HX3     -0.029208
     12 H5         17.7900   20.9780   33.6550 hc         1 HX3      0.029692
     13 H6         19.5360   21.2060   33.6650 hc         1 HX3      0.029692
     14 C6         18.8520   19.6940   32.2810 c3         1 HX3     -0.084123
     15 H7         18.0570   18.9490   32.1970 hc         1 HX3      0.020361
     16 H8         18.7610   20.3900   31.4440 hc         1 HX3      0.020361
     17 H9         19.8150   19.1850   32.2010 hc         1 HX3      0.020362
@<TRIPOS>BOND
    1    11    14 1
    2     9    11 1
    3     7     9 1
    4     4     7 1
    5     1     2 1
    6     1     3 1
    7     1     4 1
    8    14    15 1
    9    14    16 1
   10    14    17 1
   11    11    12 1
   12    11    13 1
   13     9    10 1
   14     7     8 1
   15     4     5 1
   16     4     6 1
@<TRIPOS>SUBSTRUCTURE
      1 HX3               1 ****               0 ****  **** 
