@<TRIPOS>MOLECULE
Cpptraj
  126   132     1     0     0
SMALL
No Charge or Current Charge


@<TRIPOS>ATOM
      1 C1          16.5280    14.6040    34.4650 C.3        1 MGO       0.304529
      2 H1          15.5880    14.0440    34.2880 H          1 MGO       0.090782
      3 O1          16.2590    16.0010    34.8280 O.3        1 MGO      -0.453070
      4 C2          17.2740    13.9470    35.6220 C.3        1 MGO       0.092199
      5 H2          17.4630    12.8940    35.3940 H          1 MGO       0.102926
      6 O2          16.4800    14.0540    36.8150 O.3        1 MGO      -0.586639
      7 HO2         15.8280    14.7630    36.7080 H          1 MGO       0.425065
      8 C3          18.5770    14.6710    35.8900 C.3        1 MGO       0.093211
      9 H3          18.3600    15.6850    36.2360 H          1 MGO       0.064468
     10 O3          19.2640    13.9290    36.9090 O.3        1 MGO      -0.592567
     11 HO3         18.5880    13.6140    37.5240 H          1 MGO       0.421017
     12 C4          19.4400    14.7300    34.6380 C.3        1 MGO       0.127621
     13 H4          19.8090    13.7270    34.4090 H          1 MGO       0.080661
     14 C5          18.6640    15.2970    33.4350 C.3        1 MGO       0.104343
     15 H5          18.4130    16.3340    33.6670 H          1 MGO       0.068516
     16 O5          17.3890    14.5470    33.2700 O.3        1 MGO      -0.427383
     17 C6          19.3910    15.3310    32.0830 C.3        1 MGO       0.141081
     18 H61         19.8900    16.2940    31.9580 H          1 MGO       0.057384
     19 H62         18.6740    15.2130    31.2670 H          1 MGO       0.057384
     20 O6          20.3770    14.2930    32.0080 O.3        1 MGO      -0.593555
     21 HO6         21.2090    14.6460    32.3480 H          1 MGO       0.422027
     22 C1          13.3540    18.9400    34.3490 C.3        2 MGO       0.304529
     23 H1          12.4020    19.4780    34.1700 H          2 MGO       0.090782
     24 O1          14.4220    19.8610    34.7580 O.3        2 MGO      -0.453070
     25 C2          13.1360    17.9330    35.4730 C.3        2 MGO       0.092199
     26 H2          12.3240    17.2490    35.2100 H          2 MGO       0.102926
     27 O2          12.8100    18.6390    36.6810 O.3        2 MGO      -0.586639
     28 HO2         13.0980    19.5620    36.6060 H          2 MGO       0.425065
     29 C3          14.4110    17.1600    35.7420 C.3        2 MGO       0.093211
     30 H3          15.1740    17.8440    36.1230 H          2 MGO       0.064468
     31 O3          14.0940    16.1630    36.7280 O.3        2 MGO      -0.592567
     32 HO3         13.4720    16.5750    37.3440 H          2 MGO       0.421017
     33 C4          14.9180    16.4770    34.4800 C.3        2 MGO       0.127621
     34 H4          14.2390    15.6630    34.2150 H          2 MGO       0.080661
     35 C5          15.0420    17.4670    33.3070 C.3        2 MGO       0.104343
     36 H5          15.8100    18.1960    33.5740 H          2 MGO       0.068516
     37 O5          13.7580    18.2010    33.1390 O.3        2 MGO      -0.427383
     38 C6          15.4600    16.8930    31.9450 C.3        2 MGO       0.141081
     39 H61         16.5460    16.9460    31.8410 H          2 MGO       0.057384
     40 H62         15.0150    17.4780    31.1380 H          2 MGO       0.057384
     41 O6          15.0570    15.5240    31.8230 O.3        2 MGO      -0.593555
     42 HO6         15.7730    14.9690    32.1610 H          2 MGO       0.422027
     43 C1          15.5200    23.8590    34.4150 C.3        3 MGO       0.304529
     44 H1          15.5120    24.9560    34.2670 H          3 MGO       0.090782
     45 O1          16.8430    23.3830    34.8350 O.3        3 MGO      -0.453070
     46 C2          14.5190    23.5110    35.5110 C.3        3 MGO       0.092199
     47 H2          13.5250    23.8790    35.2400 H          3 MGO       0.102926
     48 O2          14.9430    24.1120    36.7450 O.3        3 MGO      -0.586639
     49 HO2         15.8870    24.3260    36.6930 H          3 MGO       0.425065
     50 C3          14.4820    22.0130    35.7360 C.3        3 MGO       0.093211
     51 H3          15.4490    21.6840    36.1260 H          3 MGO       0.064468
     52 O3          13.4430    21.7610    36.6960 O.3        3 MGO      -0.592567
     53 HO3         13.4760    22.4870    37.3330 H          3 MGO       0.421017
     54 C4          14.1690    21.2690    34.4450 C.3        3 MGO       0.127621
     55 H4          13.1290    21.4580    34.1660 H          3 MGO       0.080661
     56 C5          15.1100    21.6920    33.3020 C.3        3 MGO       0.104343
     57 H5          16.1200    21.3830    33.5790 H          3 MGO       0.068516
     58 O5          15.1060    23.1740    33.1760 O.3        3 MGO      -0.427383
     59 C6          14.8490    21.0820    31.9170 C.3        3 MGO       0.141081
     60 H61         15.4400    20.1720    31.7980 H          3 MGO       0.057384
     61 H62         15.1470    21.7830    31.1350 H          3 MGO       0.057384
     62 O6          13.4630    20.7490    31.7590 O.3        3 MGO      -0.593555
     63 HO6         13.3370    19.8430    32.0690 H          3 MGO       0.422027
     64 C1          20.8600    24.4420    34.5980 C.3        4 MGO       0.304529
     65 H1          21.8090    25.0010    34.4840 H          4 MGO       0.090782
     66 O1          21.1030    23.0460    34.9820 O.3        4 MGO      -0.453070
     67 C2          20.0370    25.1030    35.6980 C.3        4 MGO       0.092199
     68 H2          19.8640    26.1550    35.4550 H          4 MGO       0.102926
     69 O2          20.7460    25.0000    36.9430 O.3        4 MGO      -0.586639
     70 HO2         21.4050    24.2910    36.8840 H          4 MGO       0.425065
     71 C3          18.7190    24.3790    35.8790 C.3        4 MGO       0.093211
     72 H3          18.9110    23.3660    36.2430 H          4 MGO       0.064468
     73 O3          17.9620    25.1240    36.8460 O.3        4 MGO      -0.592567
     74 HO3         18.5950    25.4410    37.5050 H          4 MGO       0.421017
     75 C4          17.9430    24.3160    34.5700 C.3        4 MGO       0.127621
     76 H4          17.5900    25.3180    34.3130 H          4 MGO       0.080661
     77 C5          18.8000    23.7450    33.4260 C.3        4 MGO       0.104343
     78 H5          19.0340    22.7090    33.6780 H          4 MGO       0.068516
     79 O5          20.0830    24.4940    33.3460 O.3        4 MGO      -0.427383
     80 C6          18.1670    23.7070    32.0270 C.3        4 MGO       0.141081
     81 H61         17.6770    22.7440    31.8710 H          4 MGO       0.057384
     82 H62         18.9380    23.8220    31.2620 H          4 MGO       0.057384
     83 O6          17.1890    24.7440    31.8800 O.3        4 MGO      -0.593555
     84 HO6         16.3350    24.3920    32.1640 H          4 MGO       0.422027
     85 C1          24.0340    20.1060    34.7130 C.3        5 MGO       0.304529
     86 H1          24.9950    19.5670    34.6020 H          5 MGO       0.090782
     87 O1          22.9400    19.1870    35.0520 O.3        5 MGO      -0.453070
     88 C2          24.1750    21.1160    35.8470 C.3        5 MGO       0.092199
     89 H2          25.0020    21.8000    35.6380 H          5 MGO       0.102926
     90 O2          24.4160    20.4140    37.0770 O.3        5 MGO      -0.586639
     91 HO2         24.1340    19.4920    36.9850 H          5 MGO       0.425065
     92 C3          22.8840    21.8910    36.0250 C.3        5 MGO       0.093211
     93 H3          22.0970    21.2070    36.3560 H          5 MGO       0.064468
     94 O3          23.1330    22.8900    37.0280 O.3        5 MGO      -0.592567
     95 HO3         23.7110    22.4820    37.6860 H          5 MGO       0.421017
     96 C4          22.4650    22.5690    34.7290 C.3        5 MGO       0.127621
     97 H4          23.1610    23.3820    34.5090 H          5 MGO       0.080661
     98 C5          22.4220    21.5750    33.5540 C.3        5 MGO       0.104343
     99 H5          21.6380    20.8470    33.7700 H          5 MGO       0.068516
    100 O5          23.7130    20.8410    33.4770 O.3        5 MGO      -0.427383
    101 C6          22.0980    22.1450    32.1650 C.3        5 MGO       0.141081
    102 H61         21.0220    22.0910    31.9870 H          5 MGO       0.057384
    103 H62         22.5970    21.5570    31.3910 H          5 MGO       0.057384
    104 O6          22.5090    23.5140    32.0660 O.3        5 MGO      -0.593555
    105 HO6         21.7720    24.0680    32.3520 H          5 MGO       0.422027
    106 C1          21.8680    15.1870    34.6470 C.3        6 MGO       0.304529
    107 H1          21.8850    14.0880    34.5030 H          6 MGO       0.090782
    108 O1          20.5190    15.6640    34.9750 O.3        6 MGO      -0.453070
    109 C2          22.7920    15.5390    35.8080 C.3        6 MGO       0.092199
    110 H2          23.8020    15.1700    35.6070 H          6 MGO       0.102926
    111 O2          22.2830    14.9420    37.0120 O.3        6 MGO      -0.586639
    112 HO2         21.3450    14.7280    36.8970 H          6 MGO       0.425065
    113 C3          22.8130    17.0370    36.0310 C.3        6 MGO       0.093211
    114 H3          21.8210    17.3670    36.3520 H          6 MGO       0.064468
    115 O3          23.7840    17.2930    37.0580 O.3        6 MGO      -0.592567
    116 HO3         23.7080    16.5690    37.6950 H          6 MGO       0.421017
    117 C4          23.2140    17.7760    34.7620 C.3        6 MGO       0.127621
    118 H4          24.2710    17.5870    34.5550 H          6 MGO       0.080661
    119 C5          22.3540    17.3510    33.5580 C.3        6 MGO       0.104343
    120 H5          21.3270    17.6600    33.7640 H          6 MGO       0.068516
    121 O5          22.3660    15.8680    33.4380 O.3        6 MGO      -0.427383
    122 C6          22.7090    17.9560    32.1930 C.3        6 MGO       0.141081
    123 H61         22.1270    18.8660    32.0300 H          6 MGO       0.057384
    124 H62         22.4650    17.2520    31.3940 H          6 MGO       0.057384
    125 O6          24.1030    18.2880    32.1290 O.3        6 MGO      -0.593555
    126 HO6         24.2080    19.1950    32.4440 H          6 MGO       0.422027
@<TRIPOS>BOND
     1    17    20 1   
     2    14    16 1   
     3    14    17 1   
     4    12    14 1   
     5    12   108 1   
     6     8    10 1   
     7     8    12 1   
     8     4     6 1   
     9     4     8 1   
    10     3    33 1   
    11     1     3 1   
    12     1     4 1   
    13     1    16 1   
    14    38    41 1   
    15    35    37 1   
    16    35    38 1   
    17    33    35 1   
    18    29    31 1   
    19    29    33 1   
    20    25    27 1   
    21    25    29 1   
    22    24    54 1   
    23    22    24 1   
    24    22    25 1   
    25    22    37 1   
    26    59    62 1   
    27    56    58 1   
    28    56    59 1   
    29    54    56 1   
    30    50    52 1   
    31    50    54 1   
    32    46    48 1   
    33    46    50 1   
    34    45    75 1   
    35    43    45 1   
    36    43    46 1   
    37    43    58 1   
    38    80    83 1   
    39    77    79 1   
    40    77    80 1   
    41    75    77 1   
    42    71    73 1   
    43    71    75 1   
    44    67    69 1   
    45    67    71 1   
    46    66    96 1   
    47    64    66 1   
    48    64    67 1   
    49    64    79 1   
    50   101   104 1   
    51    98   100 1   
    52    98   101 1   
    53    96    98 1   
    54    92    94 1   
    55    92    96 1   
    56    88    90 1   
    57    88    92 1   
    58    87   117 1   
    59    85    87 1   
    60    85    88 1   
    61    85   100 1   
    62   122   125 1   
    63   119   121 1   
    64   119   122 1   
    65   117   119 1   
    66   113   115 1   
    67   113   117 1   
    68   109   111 1   
    69   109   113 1   
    70   106   108 1   
    71   106   109 1   
    72   106   121 1   
    73    20    21 1   
    74    17    18 1   
    75    17    19 1   
    76    14    15 1   
    77    12    13 1   
    78    10    11 1   
    79     8     9 1   
    80     6     7 1   
    81     4     5 1   
    82     1     2 1   
    83    41    42 1   
    84    38    39 1   
    85    38    40 1   
    86    35    36 1   
    87    33    34 1   
    88    31    32 1   
    89    29    30 1   
    90    27    28 1   
    91    25    26 1   
    92    22    23 1   
    93    62    63 1   
    94    59    60 1   
    95    59    61 1   
    96    56    57 1   
    97    54    55 1   
    98    52    53 1   
    99    50    51 1   
   100    48    49 1   
   101    46    47 1   
   102    43    44 1   
   103    83    84 1   
   104    80    81 1   
   105    80    82 1   
   106    77    78 1   
   107    75    76 1   
   108    73    74 1   
   109    71    72 1   
   110    69    70 1   
   111    67    68 1   
   112    64    65 1   
   113   104   105 1   
   114   101   102 1   
   115   101   103 1   
   116    98    99 1   
   117    96    97 1   
   118    94    95 1   
   119    92    93 1   
   120    90    91 1   
   121    88    89 1   
   122    85    86 1   
   123   125   126 1   
   124   122   123 1   
   125   122   124 1   
   126   119   120 1   
   127   117   118 1   
   128   115   116 1   
   129   113   114 1   
   130   111   112 1   
   131   109   110 1   
   132   106   107 1   
@<TRIPOS>SUBSTRUCTURE
     1 MGO         1 TEMP              0 ****  ****    0 ROOT
