@<TRIPOS>MOLECULE
Cpptraj
  126   132     1     0     0
SMALL
No Charge or Current Charge


@<TRIPOS>ATOM
      1 C1          16.5770    14.6520    34.7250 C.3        1 MGO       0.304529
      2 H1          15.5270    14.3170    34.6140 H          1 MGO       0.090782
      3 O1          16.6520    16.0740    35.0810 O.3        1 MGO      -0.453070
      4 C2          17.2280    13.8460    35.8450 C.3        1 MGO       0.092199
      5 H2          17.1620    12.7770    35.6220 H          1 MGO       0.102926
      6 O2          16.5540    14.1310    37.0820 O.3        1 MGO      -0.586639
      7 HO2         16.0720    14.9680    37.0030 H          1 MGO       0.425065
      8 C3          18.6740    14.2600    36.0220 C.3        1 MGO       0.093211
      9 H3          18.7120    15.2980    36.3650 H          1 MGO       0.064468
     10 O3          19.2400    13.3850    37.0090 O.3        1 MGO      -0.592567
     11 HO3         18.5500    13.2300    37.6690 H          1 MGO       0.421017
     12 C4          19.4490    14.1220    34.7200 C.3        1 MGO       0.127621
     13 H4          19.5690    13.0610    34.4850 H          1 MGO       0.080661
     14 C5          18.7460    14.8460    33.5570 C.3        1 MGO       0.104343
     15 H5          18.7490    15.9140    33.7870 H          1 MGO       0.068516
     16 O5          17.3280    14.4020    33.4810 O.3        1 MGO      -0.427383
     17 C6          19.3770    14.7140    32.1640 C.3        1 MGO       0.141081
     18 H61         20.0700    15.5410    31.9940 H          1 MGO       0.057384
     19 H62         18.6030    14.7590    31.3940 H          1 MGO       0.057384
     20 O6          20.0990    13.4810    32.0450 O.3        1 MGO      -0.593555
     21 HO6         21.0090    13.6390    32.3290 H          1 MGO       0.422027
     22 C1          14.4540    19.5890    34.7330 C.3        2 MGO       0.304529
     23 H1          13.6380    20.3280    34.6030 H          2 MGO       0.090782
     24 O1          15.7240    20.2480    35.0620 O.3        2 MGO      -0.453070
     25 C2          14.0870    18.6590    35.8840 C.3        2 MGO       0.092199
     26 H2          13.1270    18.1750    35.6810 H          2 MGO       0.102926
     27 O2          14.0030    19.4220    37.0980 O.3        2 MGO      -0.586639
     28 HO2         14.4850    20.2560    36.9910 H          2 MGO       0.425065
     29 C3          15.1710    17.6200    36.0870 C.3        2 MGO       0.093211
     30 H3          16.0900    18.1160    36.4110 H          2 MGO       0.064468
     31 O3          14.7010    16.7210    37.1060 O.3        2 MGO      -0.592567
     32 HO3         14.2260    17.2630    37.7520 H          2 MGO       0.421017
     33 C4          15.4320    16.8390    34.8070 C.3        2 MGO       0.127621
     34 H4          14.5730    16.1970    34.5970 H          2 MGO       0.080661
     35 C5          15.7010    17.7740    33.6140 C.3        2 MGO       0.104343
     36 H5          16.6280    18.3120    33.8230 H          2 MGO       0.068516
     37 O5          14.6070    18.7770    33.5120 O.3        2 MGO      -0.427383
     38 C6          15.8950    17.1180    32.2390 C.3        2 MGO       0.141081
     39 H61         16.9560    16.9270    32.0690 H          2 MGO       0.057384
     40 H62         15.5420    17.7880    31.4500 H          2 MGO       0.057384
     41 O6          15.1880    15.8740    32.1620 O.3        2 MGO      -0.593555
     42 HO6         15.7820    15.1740    32.4650 H          2 MGO       0.422027
     43 C1          17.6670    23.8970    34.5920 C.3        3 MGO       0.304529
     44 H1          17.8950    24.9680    34.4270 H          3 MGO       0.090782
     45 O1          18.8730    23.1370    34.9390 O.3        3 MGO      -0.453070
     46 C2          16.6830    23.7850    35.7510 C.3        3 MGO       0.092199
     47 H2          15.7820    24.3660    35.5350 H          3 MGO       0.102926
     48 O2          17.3060    24.2770    36.9480 O.3        3 MGO      -0.586639
     49 HO2         18.2700    24.2730    36.8370 H          3 MGO       0.425065
     50 C3          16.3260    22.3340    36.0020 C.3        3 MGO       0.093211
     51 H3          17.2170    21.7960    36.3380 H          3 MGO       0.064468
     52 O3          15.3180    22.3220    37.0260 O.3        3 MGO      -0.592567
     53 HO3         15.5530    23.0240    37.6490 H          3 MGO       0.421017
     54 C4          15.7740    21.6770    34.7440 C.3        3 MGO       0.127621
     55 H4          14.7880    22.0940    34.5250 H          3 MGO       0.080661
     56 C5          16.7130    21.8760    33.5390 C.3        3 MGO       0.104343
     57 H5          17.6430    21.3490    33.7600 H          3 MGO       0.068516
     58 O5          17.0330    23.3200    33.3910 O.3        3 MGO      -0.427383
     59 C6          16.2360    21.3380    32.1830 C.3        3 MGO       0.141081
     60 H61         16.6010    20.3180    32.0420 H          3 MGO       0.057384
     61 H62         16.6350    21.9530    31.3730 H          3 MGO       0.057384
     62 O6          14.8040    21.3250    32.1130 O.3        3 MGO      -0.593555
     63 HO6         14.4980    20.4700    32.4450 H          3 MGO       0.422027
     64 C1          23.0020    23.2680    34.4440 C.3        4 MGO       0.304529
     65 H1          24.0440    23.5990    34.2640 H          4 MGO       0.090782
     66 O1          22.9500    21.8530    34.8340 O.3        4 MGO      -0.453070
     67 C2          22.4180    24.0980    35.5810 C.3        4 MGO       0.092199
     68 H2          22.4700    25.1620    35.3320 H          4 MGO       0.102926
     69 O2          23.1620    23.8400    36.7830 O.3        4 MGO      -0.586639
     70 HO2         23.6400    23.0010    36.6950 H          4 MGO       0.425065
     71 C3          20.9850    23.6890    35.8520 C.3        4 MGO       0.093211
     72 H3          20.9680    22.6590    36.2200 H          4 MGO       0.064468
     73 O3          20.4760    24.5860    36.8510 O.3        4 MGO      -0.592567
     74 HO3         21.2030    24.7540    37.4660 H          4 MGO       0.421017
     75 C4          20.1350    23.7990    34.5940 C.3        4 MGO       0.127621
     76 H4          20.0010    24.8540    34.3430 H          4 MGO       0.080661
     77 C5          20.7690    23.0490    33.4090 C.3        4 MGO       0.104343
     78 H5          20.7810    21.9870    33.6620 H          4 MGO       0.068516
     79 O5          22.1800    23.4900    33.2400 O.3        4 MGO      -0.427383
     80 C6          20.0590    23.1510    32.0520 C.3        4 MGO       0.141081
     81 H61         19.3570    22.3220    31.9400 H          4 MGO       0.057384
     82 H62         20.7860    23.0890    31.2400 H          4 MGO       0.057384
     83 O6          19.3310    24.3810    31.9480 O.3        4 MGO      -0.593555
     84 HO6         18.4390    24.2300    32.2880 H          4 MGO       0.422027
     85 C1          25.1260    18.3300    34.4350 C.3        5 MGO       0.304529
     86 H1          25.9330    17.5880    34.2740 H          5 MGO       0.090782
     87 O1          23.8770    17.6800    34.8530 O.3        5 MGO      -0.453070
     88 C2          25.5590    19.2840    35.5420 C.3        5 MGO       0.092199
     89 H2          26.5040    19.7640    35.2730 H          5 MGO       0.102926
     90 O2          25.7130    18.5480    36.7660 O.3        5 MGO      -0.586639
     91 HO2         25.2270    17.7130    36.7050 H          5 MGO       0.425065
     92 C3          24.4890    20.3290    35.7860 C.3        5 MGO       0.093211
     93 H3          23.5900    19.8400    36.1740 H          5 MGO       0.064468
     94 O3          25.0170    21.2490    36.7560 O.3        5 MGO      -0.592567
     95 HO3         25.5280    20.7220    37.3840 H          5 MGO       0.421017
     96 C4          24.1520    21.0820    34.5060 C.3        5 MGO       0.127621
     97 H4          24.9980    21.7180    34.2330 H          5 MGO       0.080661
     98 C5          23.8140    20.1210    33.3520 C.3        5 MGO       0.104343
     99 H5          22.9020    19.5880    33.6260 H          5 MGO       0.068516
    100 O5          24.9010    19.1160    33.2080 O.3        5 MGO      -0.427383
    101 C6          23.5410    20.7470    31.9770 C.3        5 MGO       0.141081
    102 H61         22.4700    20.9360    31.8650 H          5 MGO       0.057384
    103 H62         23.8470    20.0610    31.1830 H          5 MGO       0.057384
    104 O6          24.2410    21.9890    31.8310 O.3        5 MGO      -0.593555
    105 HO6         23.6660    22.6950    32.1530 H          5 MGO       0.422027
    106 C1          21.9130    14.0220    34.5760 C.3        6 MGO       0.304529
    107 H1          21.6750    12.9480    34.4480 H          6 MGO       0.090782
    108 O1          20.7280    14.7900    34.9770 O.3        6 MGO      -0.453070
    109 C2          22.9630    14.1590    35.6730 C.3        6 MGO       0.092199
    110 H2          23.8500    13.5730    35.4180 H          6 MGO       0.102926
    111 O2          22.4100    13.6940    36.9150 O.3        6 MGO      -0.586639
    112 HO2         21.4420    13.6960    36.8600 H          6 MGO       0.425065
    113 C3          23.3330    15.6150    35.8710 C.3        6 MGO       0.093211
    114 H3          22.4620    16.1600    36.2460 H          6 MGO       0.064468
    115 O3          24.3990    15.6480    36.8340 O.3        6 MGO      -0.592567
    116 HO3         24.2020    14.9600    37.4850 H          6 MGO       0.421017
    117 C4          23.8090    16.2430    34.5690 C.3        6 MGO       0.127621
    118 H4          24.7820    15.8210    34.3020 H          6 MGO       0.080661
    119 C5          22.8030    16.0200    33.4260 C.3        6 MGO       0.104343
    120 H5          21.8860    16.5520    33.6890 H          6 MGO       0.068516
    121 O5          22.4750    14.5720    33.3280 O.3        6 MGO      -0.427383
    122 C6          23.1990    16.5280    32.0320 C.3        6 MGO       0.141081
    123 H61         22.8260    17.5450    31.8910 H          6 MGO       0.057384
    124 H62         22.7540    15.8960    31.2600 H          6 MGO       0.057384
    125 O6          24.6250    16.5380    31.8790 O.3        6 MGO      -0.593555
    126 HO6         24.9500    17.4000    32.1730 H          6 MGO       0.422027
@<TRIPOS>BOND
     1    17    20 1   
     2    14    16 1   
     3    14    17 1   
     4    12    14 1   
     5    12   108 1   
     6     8    10 1   
     7     8    12 1   
     8     4     6 1   
     9     4     8 1   
    10     3    33 1   
    11     1     3 1   
    12     1     4 1   
    13     1    16 1   
    14    38    41 1   
    15    35    37 1   
    16    35    38 1   
    17    33    35 1   
    18    29    31 1   
    19    29    33 1   
    20    25    27 1   
    21    25    29 1   
    22    24    54 1   
    23    22    24 1   
    24    22    25 1   
    25    22    37 1   
    26    59    62 1   
    27    56    58 1   
    28    56    59 1   
    29    54    56 1   
    30    50    52 1   
    31    50    54 1   
    32    46    48 1   
    33    46    50 1   
    34    45    75 1   
    35    43    45 1   
    36    43    46 1   
    37    43    58 1   
    38    80    83 1   
    39    77    79 1   
    40    77    80 1   
    41    75    77 1   
    42    71    73 1   
    43    71    75 1   
    44    67    69 1   
    45    67    71 1   
    46    66    96 1   
    47    64    66 1   
    48    64    67 1   
    49    64    79 1   
    50   101   104 1   
    51    98   100 1   
    52    98   101 1   
    53    96    98 1   
    54    92    94 1   
    55    92    96 1   
    56    88    90 1   
    57    88    92 1   
    58    87   117 1   
    59    85    87 1   
    60    85    88 1   
    61    85   100 1   
    62   122   125 1   
    63   119   121 1   
    64   119   122 1   
    65   117   119 1   
    66   113   115 1   
    67   113   117 1   
    68   109   111 1   
    69   109   113 1   
    70   106   108 1   
    71   106   109 1   
    72   106   121 1   
    73    20    21 1   
    74    17    18 1   
    75    17    19 1   
    76    14    15 1   
    77    12    13 1   
    78    10    11 1   
    79     8     9 1   
    80     6     7 1   
    81     4     5 1   
    82     1     2 1   
    83    41    42 1   
    84    38    39 1   
    85    38    40 1   
    86    35    36 1   
    87    33    34 1   
    88    31    32 1   
    89    29    30 1   
    90    27    28 1   
    91    25    26 1   
    92    22    23 1   
    93    62    63 1   
    94    59    60 1   
    95    59    61 1   
    96    56    57 1   
    97    54    55 1   
    98    52    53 1   
    99    50    51 1   
   100    48    49 1   
   101    46    47 1   
   102    43    44 1   
   103    83    84 1   
   104    80    81 1   
   105    80    82 1   
   106    77    78 1   
   107    75    76 1   
   108    73    74 1   
   109    71    72 1   
   110    69    70 1   
   111    67    68 1   
   112    64    65 1   
   113   104   105 1   
   114   101   102 1   
   115   101   103 1   
   116    98    99 1   
   117    96    97 1   
   118    94    95 1   
   119    92    93 1   
   120    90    91 1   
   121    88    89 1   
   122    85    86 1   
   123   125   126 1   
   124   122   123 1   
   125   122   124 1   
   126   119   120 1   
   127   117   118 1   
   128   115   116 1   
   129   113   114 1   
   130   111   112 1   
   131   109   110 1   
   132   106   107 1   
@<TRIPOS>SUBSTRUCTURE
     1 MGO         1 TEMP              0 ****  ****    0 ROOT
