@<TRIPOS>MOLECULE
Cpptraj
   29    28     1     0     0
SMALL
No Charge or Current Charge


@<TRIPOS>ATOM
      1 C1          19.9200    19.3350    31.9910 C.3        1 MHP      -0.096100
      2 H3          20.1660    20.3980    31.9360 H          1 MHP       0.040700
      3 H4          20.8480    18.7610    31.9520 H          1 MHP       0.040700
      4 H5          19.3200    19.0770    31.1150 H          1 MHP       0.040700
      5 C2          19.1410    19.0230    33.2800 C.3        1 MHP      -0.079400
      6 H6          18.8830    17.9610    33.2970 H          1 MHP       0.042700
      7 H7          18.2050    19.5890    33.2820 H          1 MHP       0.042700
      8 C3          19.9660    19.3780    34.5350 C.3        1 MHP      -0.080400
      9 H8          20.9000    18.8120    34.5280 H          1 MHP       0.046200
     10 H9          20.2220    20.4400    34.5130 H          1 MHP       0.046200
     11 C4          19.1830    19.0640    35.8280 C.3        1 MHP      -0.080400
     12 H10         18.9260    18.0020    35.8480 H          1 MHP       0.049200
     13 H11         18.2480    19.6310    35.8340 H          1 MHP       0.049200
     14 C5          20.0090    19.4180    37.0820 C.3        1 MHP      -0.079400
     15 H12         20.9430    18.8490    37.0760 H          1 MHP       0.055700
     16 H13         20.2680    20.4790    37.0530 H          1 MHP       0.055700
     17 C6          19.2240    19.1030    38.3760 C.3        1 MHP      -0.109400
     18 H14         18.9340    18.0500    38.3580 H          1 MHP       0.069200
     19 H15         18.3030    19.6930    38.4020 H          1 MHP       0.069200
     20 C7          20.0590    19.3750    39.6480 C.3        1 MHP       0.128500
     21 H16         20.3090    20.4400    39.6820 H          1 MHP       0.111700
     22 C8          21.3630    18.5630    39.5790 C.3        1 MHP      -0.138100
     23 H17         21.1600    17.4890    39.5430 H          1 MHP       0.082700
     24 H18         21.9360    18.8310    38.6880 H          1 MHP       0.082700
     25 H19         21.9920    18.7650    40.4490 H          1 MHP       0.082700
     26 N1          19.3200    19.0770    40.9210 N.4        1 MHP      -0.847600
     27 H1          18.4660    19.6490    41.0110 H          1 MHP       0.458133
     28 H2          19.9060    19.2720    41.7480 H          1 MHP       0.458133
     29 HN11        19.0370    18.0860    40.9700 H          1 MHP       0.458134
@<TRIPOS>BOND
     1    20    22 1   
     2    20    26 1   
     3    17    20 1   
     4    14    17 1   
     5    11    14 1   
     6     8    11 1   
     7     5     8 1   
     8     1     5 1   
     9    26    27 1   
    10    26    28 1   
    11    26    29 1   
    12    22    23 1   
    13    22    24 1   
    14    22    25 1   
    15    20    21 1   
    16    17    18 1   
    17    17    19 1   
    18    14    15 1   
    19    14    16 1   
    20    11    12 1   
    21    11    13 1   
    22     8     9 1   
    23     8    10 1   
    24     5     6 1   
    25     5     7 1   
    26     1     2 1   
    27     1     3 1   
    28     1     4 1   
@<TRIPOS>SUBSTRUCTURE
     1 MHP         1 TEMP              0 ****  ****    0 ROOT
