@<TRIPOS>MOLECULE
Cpptraj
  147   154     1     0     0
SMALL
No Charge or Current Charge


@<TRIPOS>ATOM
      1 C1          13.7930    18.3300    33.5340 C.3        1 MGO       0.304529
      2 H1          12.7390    18.6460    33.4050 H          1 MGO       0.090782
      3 O1          14.6630    19.4740    33.8370 O.3        1 MGO      -0.453070
      4 C2          13.8530    17.3460    34.6980 C.3        1 MGO       0.092199
      5 H2          13.1670    16.5150    34.5130 H          1 MGO       0.102926
      6 O2          13.4860    18.0130    35.9170 O.3        1 MGO      -0.586639
      7 HO2         13.5490    18.9760    35.8020 H          1 MGO       0.425065
      8 C3          15.2620    16.8230    34.8870 C.3        1 MGO       0.093211
      9 H3          15.9210    17.6450    35.1820 H          1 MGO       0.064468
     10 O3          15.1960    15.8270    35.9200 O.3        1 MGO      -0.592567
     11 HO3         14.5590    16.1520    36.5710 H          1 MGO       0.421017
     12 C4          15.7620    16.1860    33.6010 C.3        1 MGO       0.127621
     13 H4          15.1660    15.2950    33.3890 H          1 MGO       0.080661
     14 C5          15.6650    17.1640    32.4200 C.3        1 MGO       0.104343
     15 H5          16.3040    18.0210    32.6420 H          1 MGO       0.068516
     16 O5          14.2650    17.6520    32.3110 O.3        1 MGO      -0.427383
     17 C6          16.1180    16.6380    31.0490 C.3        1 MGO       0.141081
     18 H61         17.1850    16.8280    30.9180 H          1 MGO       0.057384
     19 H62         15.5800    17.1580    30.2530 H          1 MGO       0.057384
     20 O6          15.8870    15.2280    30.9440 O.3        1 MGO      -0.593555
     21 HO6         16.6750    14.7690    31.2650 H          1 MGO       0.422027
     22 C1          14.4770    23.6510    33.5350 C.3        2 MGO       0.304529
     23 H1          14.0660    24.6730    33.4060 H          2 MGO       0.090782
     24 O1          15.9140    23.6840    33.8370 O.3        2 MGO      -0.453070
     25 C2          13.7450    22.9900    34.7000 C.3        2 MGO       0.092199
     26 H2          12.6670    23.0100    34.5150 H          2 MGO       0.102926
     27 O2          14.0390    23.6920    35.9180 O.3        2 MGO      -0.586639
     28 HO2         14.8300    24.2440    35.8030 H          2 MGO       0.425065
     29 C3          14.2160    21.5630    34.8870 C.3        2 MGO       0.093211
     30 H3          15.2690    21.5590    35.1820 H          2 MGO       0.064468
     31 O3          13.3960    20.9930    35.9200 O.3        2 MGO      -0.592567
     32 HO3         13.2520    21.6950    36.5710 H          2 MGO       0.421017
     33 C4          14.0290    20.7740    33.6010 C.3        2 MGO       0.127621
     34 H4          12.9600    20.6860    33.3890 H          2 MGO       0.080661
     35 C5          14.7320    21.4610    32.4200 C.3        2 MGO       0.104343
     36 H5          15.8010    21.4960    32.6430 H          2 MGO       0.068516
     37 O5          14.2410    22.8600    32.3120 O.3        2 MGO      -0.427383
     38 C6          14.6040    20.7800    31.0500 C.3        2 MGO       0.141081
     39 H61         15.4170    20.0630    30.9170 H          2 MGO       0.057384
     40 H62         14.6750    21.5240    30.2520 H          2 MGO       0.057384
     41 O6          13.3570    20.0810    30.9440 O.3        2 MGO      -0.593555
     42 HO6         13.4890    19.1790    31.2650 H          2 MGO       0.422027
     43 C1          19.0640    26.4350    33.5350 C.3        3 MGO       0.304529
     44 H1          19.6070    27.3920    33.4070 H          3 MGO       0.090782
     45 O1          19.9850    25.3310    33.8380 O.3        3 MGO      -0.453070
     46 C2          18.0920    26.5940    34.7000 C.3        3 MGO       0.092199
     47 H2          17.4340    27.4480    34.5160 H          3 MGO       0.102926
     48 O2          18.8240    26.8020    35.9190 O.3        3 MGO      -0.586639
     49 HO2         19.7480    26.5270    35.8030 H          3 MGO       0.425065
     50 C3          17.2690    25.3360    34.8880 C.3        3 MGO       0.093211
     51 H3          17.9230    24.5100    35.1820 H          3 MGO       0.064468
     52 O3          16.3120    25.6220    35.9210 O.3        3 MGO      -0.592567
     53 HO3         16.7720    26.1710    36.5720 H          3 MGO       0.421017
     54 C4          16.5350    24.9910    33.6020 C.3        3 MGO       0.127621
     55 H4          15.8000    25.7720    33.3900 H          3 MGO       0.080661
     56 C5          17.5100    24.8690    32.4210 C.3        3 MGO       0.104343
     57 H5          18.2040    24.0560    32.6430 H          3 MGO       0.068516
     58 O5          18.2980    26.1260    32.3120 O.3        3 MGO      -0.427383
     59 C6          16.8980    24.5450    31.0500 C.3        3 MGO       0.141081
     60 H61         16.8440    23.4630    30.9180 H          3 MGO       0.057384
     61 H62         17.5230    24.9550    30.2530 H          3 MGO       0.057384
     62 O6          15.5730    25.0850    30.9450 O.3        3 MGO      -0.593555
     63 HO6         14.9510    24.4190    31.2660 H          3 MGO       0.422027
     64 C1          24.1010    24.5830    33.5340 C.3        4 MGO       0.304529
     65 H1          25.1870    24.7560    33.4050 H          4 MGO       0.090782
     66 O1          23.8110    23.1750    33.8370 O.3        4 MGO      -0.453070
     67 C2          23.6180    25.4430    34.6980 C.3        4 MGO       0.092199
     68 H2          23.8770    26.4890    34.5140 H          4 MGO       0.102926
     69 O2          24.2380    25.0000    35.9180 O.3        4 MGO      -0.586639
     70 HO2         24.6000    24.1070    35.8020 H          4 MGO       0.425065
     71 C3          22.1230    25.3020    34.8870 C.3        4 MGO       0.093211
     72 H3          21.8850    24.2760    35.1820 H          4 MGO       0.064468
     73 O3          21.7490    26.2280    35.9200 O.3        4 MGO      -0.592567
     74 HO3         22.4650    26.2120    36.5710 H          4 MGO       0.421017
     75 C4          21.3940    25.6600    33.6020 C.3        4 MGO       0.127621
     76 H4          21.5470    26.7210    33.3890 H          4 MGO       0.080661
     77 C5          21.9070    24.8220    32.4200 C.3        4 MGO       0.104343
     78 H5          21.7030    23.7720    32.6430 H          4 MGO       0.068516
     79 O5          23.3810    24.9890    32.3120 O.3        4 MGO      -0.427383
     80 C6          21.2710    25.0990    31.0500 C.3        4 MGO       0.141081
     81 H61         20.3910    24.4650    30.9180 H          4 MGO       0.057384
     82 H62         21.9810    24.8640    30.2520 H          4 MGO       0.057384
     83 O6          20.8670    26.4700    30.9440 O.3        4 MGO      -0.593555
     84 HO6         19.9590    26.5420    31.2670 H          4 MGO       0.422027
     85 C1          25.7930    19.4910    33.5340 C.3        5 MGO       0.304529
     86 H1          26.6050    18.7500    33.4040 H          5 MGO       0.090782
     87 O1          24.5120    18.8390    33.8370 O.3        5 MGO      -0.453070
     88 C2          26.1650    20.4040    34.6980 C.3        5 MGO       0.092199
     89 H2          27.1440    20.8550    34.5130 H          5 MGO       0.102926
     90 O2          26.2060    19.6440    35.9170 O.3        5 MGO      -0.586639
     91 HO2         25.7320    18.8050    35.8020 H          5 MGO       0.425065
     92 C3          25.1220    21.4870    34.8860 C.3        5 MGO       0.093211
     93 H3          24.1720    21.0330    35.1820 H          5 MGO       0.064468
     94 O3          25.6130    22.3560    35.9200 O.3        5 MGO      -0.592567
     95 HO3         26.0470    21.7860    36.5700 H          5 MGO       0.421017
     96 C4          24.9480    22.2780    33.6010 C.3        5 MGO       0.127621
     97 H4          25.8720    22.8210    33.3880 H          5 MGO       0.080661
     98 C5          24.6110    21.3550    32.4200 C.3        5 MGO       0.104343
     99 H5          23.6640    20.8590    32.6430 H          5 MGO       0.068516
    100 O5          25.6620    20.3070    32.3110 O.3        5 MGO      -0.427383
    101 C6          24.4310    22.0240    31.0490 C.3        5 MGO       0.141081
    102 H61         23.3870    22.3170    30.9170 H          5 MGO       0.057384
    103 H62         24.6900    21.3230    30.2520 H          5 MGO       0.057384
    104 O6          25.2510    23.1950    30.9430 O.3        5 MGO      -0.593555
    105 HO6         24.7410    23.9500    31.2650 H          5 MGO       0.422027
    106 C1          22.8670    14.9940    33.5350 C.3        6 MGO       0.304529
    107 H1          22.7940    13.8950    33.4060 H          6 MGO       0.090782
    108 O1          21.5580    15.5880    33.8370 O.3        6 MGO      -0.453070
    109 C2          23.8130    15.2720    34.6990 C.3        6 MGO       0.092199
    110 H2          24.7760    14.7880    34.5150 H          6 MGO       0.102926
    111 O2          23.2440    14.7670    35.9180 O.3        6 MGO      -0.586639
    112 HO2         22.2920    14.6130    35.8030 H          6 MGO       0.425065
    113 C3          24.0080    16.7620    34.8870 C.3        6 MGO       0.093211
    114 H3          23.0610    17.2220    35.1820 H          6 MGO       0.064468
    115 O3          24.9940    16.9200    35.9210 O.3        6 MGO      -0.592567
    116 HO3         24.8190    16.2260    36.5720 H          6 MGO       0.421017
    117 C4          24.5190    17.3910    33.6010 C.3        6 MGO       0.127621
    118 H4          25.5200    17.0070    33.3890 H          6 MGO       0.080661
    119 C5          23.5870    17.0780    32.4200 C.3        6 MGO       0.104343
    120 H5          22.6100    17.5100    32.6420 H          6 MGO       0.068516
    121 O5          23.4230    15.6030    32.3120 O.3        6 MGO      -0.427383
    122 C6          23.9990    17.6350    31.0500 C.3        6 MGO       0.141081
    123 H61         23.5770    18.6340    30.9170 H          6 MGO       0.057384
    124 H62         23.6120    16.9950    30.2530 H          6 MGO       0.057384
    125 O6          25.4260    17.7250    30.9440 O.3        6 MGO      -0.593555
    126 HO6         25.6980    18.5950    31.2650 H          6 MGO       0.422027
    127 C1          17.5260    14.4770    33.5350 C.3        7 MGO       0.304529
    128 H1          16.6220    13.8500    33.4060 H          7 MGO       0.090782
    129 O1          17.1760    15.8700    33.8370 O.3        7 MGO      -0.453070
    130 C2          18.3330    13.9100    34.7000 C.3        7 MGO       0.092199
    131 H2          18.5550    12.8560    34.5150 H          7 MGO       0.102926
    132 O2          17.5840    14.0410    35.9180 O.3        7 MGO      -0.586639
    133 HO2         16.8700    14.6890    35.8030 H          7 MGO       0.425065
    134 C3          19.6200    14.6870    34.8880 C.3        7 MGO       0.093211
    135 H3          19.3890    15.7150    35.1830 H          7 MGO       0.064468
    136 O3          20.3580    14.0150    35.9210 O.3        7 MGO      -0.592567
    137 HO3         19.7070    13.7200    36.5720 H          7 MGO       0.421017
    138 C4          20.4320    14.6810    33.6010 C.3        7 MGO       0.127621
    139 H4          20.7550    13.6580    33.3900 H          7 MGO       0.080661
    140 C5          19.6060    15.2130    32.4200 C.3        7 MGO       0.104343
    141 H5          19.3340    16.2470    32.6430 H          7 MGO       0.068516
    142 O5          18.3510    14.4220    32.3120 O.3        7 MGO      -0.427383
    143 C6          20.2990    15.2390    31.0500 C.3        7 MGO       0.141081
    144 H61         20.8160    16.1910    30.9170 H          7 MGO       0.057384
    145 H62         19.5570    15.1420    30.2530 H          7 MGO       0.057384
    146 O6          21.2580    14.1780    30.9440 O.3        7 MGO      -0.593555
    147 HO6         22.1070    14.5080    31.2660 H          7 MGO       0.422027
@<TRIPOS>BOND
     1    17    20 1   
     2    14    16 1   
     3    14    17 1   
     4    12    14 1   
     5    12   129 1   
     6     8    10 1   
     7     8    12 1   
     8     4     6 1   
     9     4     8 1   
    10     3    33 1   
    11     1     3 1   
    12     1     4 1   
    13     1    16 1   
    14    38    41 1   
    15    35    37 1   
    16    35    38 1   
    17    33    35 1   
    18    29    31 1   
    19    29    33 1   
    20    25    27 1   
    21    25    29 1   
    22    24    54 1   
    23    22    24 1   
    24    22    25 1   
    25    22    37 1   
    26    59    62 1   
    27    56    58 1   
    28    56    59 1   
    29    54    56 1   
    30    50    52 1   
    31    50    54 1   
    32    46    48 1   
    33    46    50 1   
    34    45    75 1   
    35    43    45 1   
    36    43    46 1   
    37    43    58 1   
    38    80    83 1   
    39    77    79 1   
    40    77    80 1   
    41    75    77 1   
    42    71    73 1   
    43    71    75 1   
    44    67    69 1   
    45    67    71 1   
    46    66    96 1   
    47    64    66 1   
    48    64    67 1   
    49    64    79 1   
    50   101   104 1   
    51    98   100 1   
    52    98   101 1   
    53    96    98 1   
    54    92    94 1   
    55    92    96 1   
    56    88    90 1   
    57    88    92 1   
    58    87   117 1   
    59    85    87 1   
    60    85    88 1   
    61    85   100 1   
    62   122   125 1   
    63   119   121 1   
    64   119   122 1   
    65   117   119 1   
    66   113   115 1   
    67   113   117 1   
    68   109   111 1   
    69   109   113 1   
    70   108   138 1   
    71   106   108 1   
    72   106   109 1   
    73   106   121 1   
    74   143   146 1   
    75   140   142 1   
    76   140   143 1   
    77   138   140 1   
    78   134   136 1   
    79   134   138 1   
    80   130   132 1   
    81   130   134 1   
    82   127   129 1   
    83   127   130 1   
    84   127   142 1   
    85    20    21 1   
    86    17    18 1   
    87    17    19 1   
    88    14    15 1   
    89    12    13 1   
    90    10    11 1   
    91     8     9 1   
    92     6     7 1   
    93     4     5 1   
    94     1     2 1   
    95    41    42 1   
    96    38    39 1   
    97    38    40 1   
    98    35    36 1   
    99    33    34 1   
   100    31    32 1   
   101    29    30 1   
   102    27    28 1   
   103    25    26 1   
   104    22    23 1   
   105    62    63 1   
   106    59    60 1   
   107    59    61 1   
   108    56    57 1   
   109    54    55 1   
   110    52    53 1   
   111    50    51 1   
   112    48    49 1   
   113    46    47 1   
   114    43    44 1   
   115    83    84 1   
   116    80    81 1   
   117    80    82 1   
   118    77    78 1   
   119    75    76 1   
   120    73    74 1   
   121    71    72 1   
   122    69    70 1   
   123    67    68 1   
   124    64    65 1   
   125   104   105 1   
   126   101   102 1   
   127   101   103 1   
   128    98    99 1   
   129    96    97 1   
   130    94    95 1   
   131    92    93 1   
   132    90    91 1   
   133    88    89 1   
   134    85    86 1   
   135   125   126 1   
   136   122   123 1   
   137   122   124 1   
   138   119   120 1   
   139   117   118 1   
   140   115   116 1   
   141   113   114 1   
   142   111   112 1   
   143   109   110 1   
   144   106   107 1   
   145   146   147 1   
   146   143   144 1   
   147   143   145 1   
   148   140   141 1   
   149   138   139 1   
   150   136   137 1   
   151   134   135 1   
   152   132   133 1   
   153   130   131 1   
   154   127   128 1   
@<TRIPOS>SUBSTRUCTURE
     1 MGO         1 TEMP              0 ****  ****    0 ROOT
