@<TRIPOS>MOLECULE
Cpptraj
   23    23     1     0     0
SMALL
No Charge or Current Charge


@<TRIPOS>ATOM
      1 C1          20.1810    21.8640    39.0390 C.2        1 PB4       0.906399
      2 O1          20.7090    22.9680    39.0410 O.co2      1 PB4      -0.851989
      3 O2          20.7500    20.9220    39.5720 O.co2      1 PB4      -0.851989
      4 C2          18.7920    21.6680    38.3860 C.3        1 PB4      -0.199444
      5 H1          18.0970    22.4530    38.7210 H          1 PB4       0.022695
      6 H2          18.3290    20.7200    38.7010 H          1 PB4       0.022695
      7 C3          18.8680    21.7040    36.8440 C.3        1 PB4      -0.041409
      8 H3          17.8520    21.6620    36.4390 H          1 PB4       0.017696
      9 H4          19.3050    22.6490    36.5110 H          1 PB4       0.017696
     10 C4          19.6820    20.5230    36.2720 C.3        1 PB4      -0.070116
     11 H5          19.2640    19.5810    36.6370 H          1 PB4       0.077183
     12 H6          20.7120    20.5720    36.6330 H          1 PB4       0.077183
     13 C5          19.6830    20.5200    34.7510 C.ar       1 PB4      -0.040309
     14 C6          18.7010    19.8210    34.0470 C.ar       1 PB4      -0.135030
     15 H7          17.9280    19.2740    34.5860 H          1 PB4       0.138969
     16 C7          18.7010    19.8230    32.6530 C.ar       1 PB4      -0.138031
     17 H8          17.9320    19.2760    32.1080 H          1 PB4       0.114475
     18 C8          19.6820    20.5230    31.9540 C.ar       1 PB4      -0.158035
     19 H9          19.6810    20.5240    30.8650 H          1 PB4       0.110975
     20 C9          20.6640    21.2230    32.6530 C.ar       1 PB4      -0.138031
     21 H10         21.4320    21.7710    32.1090 H          1 PB4       0.114475
     22 C10         20.6660    21.2220    34.0470 C.ar       1 PB4      -0.135030
     23 H11         21.4350    21.7720    34.5870 H          1 PB4       0.138972
@<TRIPOS>BOND
     1    20    22 ar  
     2    18    20 ar  
     3    16    18 ar  
     4    14    16 ar  
     5    13    14 ar  
     6    13    22 ar  
     7    10    13 1   
     8     7    10 1   
     9     4     7 1   
    10     1     2 1   
    11     1     3 1   
    12     1     4 1   
    13    22    23 1   
    14    20    21 1   
    15    18    19 1   
    16    16    17 1   
    17    14    15 1   
    18    10    11 1   
    19    10    12 1   
    20     7     8 1   
    21     7     9 1   
    22     4     5 1   
    23     4     6 1   
@<TRIPOS>SUBSTRUCTURE
     1 PB4         1 TEMP              0 ****  ****    0 ROOT
