@<TRIPOS>MOLECULE
Cpptraj generated mol2 file.
  147   154     7     0     0
SMALL
USER_CHARGES


@<TRIPOS>ATOM
      1 C1         15.7130   15.7180   33.9100 c3         1 MGO      0.304529
      2 H1         14.6270   15.5440   33.7810 h2         1 MGO      0.090782
      3 O1         16.0000   17.1260   34.2130 os         1 MGO     -0.453070
      4 C2         16.1950   14.8570   35.0740 c3         1 MGO      0.092199
      5 H2         15.9380   13.8110   34.8900 h1         1 MGO      0.102926
      6 O2         15.5750   15.2990   36.2940 oh         1 MGO     -0.586639
      7 HO2        15.2140   16.1930   36.1780 ho         1 MGO      0.425065
      8 C3         17.6910   14.9990   35.2630 c3         1 MGO      0.093211
      9 H3         17.9280   16.0250   35.5580 h1         1 MGO      0.064468
     10 O3         18.0650   14.0730   36.2970 oh         1 MGO     -0.592567
     11 HO3        17.3490   14.0890   36.9470 ho         1 MGO      0.421017
     12 C4         18.4190   14.6420   33.9770 c3         1 MGO      0.127621
     13 H4         18.2680   13.5810   33.7650 h1         1 MGO      0.080661
     14 C5         17.9060   15.4810   32.7960 c3         1 MGO      0.104343
     15 H5         18.1100   16.5310   33.0180 h1         1 MGO      0.068516
     16 O5         16.4330   15.3120   32.6870 os         1 MGO     -0.427383
     17 C6         18.5420   15.2040   31.4250 c3         1 MGO      0.141081
     18 H61        19.4220   15.8380   31.2940 h1         1 MGO      0.057384
     19 H62        17.8330   15.4380   30.6290 h1         1 MGO      0.057384
     20 O6         18.9480   13.8330   31.3200 oh         1 MGO     -0.593555
     21 HO6        19.8560   13.7620   31.6410 ho         1 MGO      0.422027
     22 C1         14.0180   20.8080   33.9110 c3         2 MGO      0.304529
     23 H1         13.2050   21.5490   33.7830 h2         2 MGO      0.090782
     24 O1         15.2980   21.4620   34.2140 os         2 MGO     -0.453070
     25 C2         13.6460   19.8950   35.0760 c3         2 MGO      0.092199
     26 H2         12.6670   19.4440   34.8910 h1         2 MGO      0.102926
     27 O2         13.6060   20.6540   36.2940 oh         2 MGO     -0.586639
     28 HO2        14.0790   21.4950   36.1790 ho         2 MGO      0.425065
     29 C3         14.6900   18.8140   35.2630 c3         2 MGO      0.093211
     30 H3         15.6400   19.2680   35.5580 h1         2 MGO      0.064468
     31 O3         14.1990   17.9440   36.2960 oh         2 MGO     -0.592567
     32 HO3        13.7650   18.5130   36.9480 ho         2 MGO      0.421017
     33 C4         14.8650   18.0220   33.9770 c3         2 MGO      0.127621
     34 H4         13.9400   17.4780   33.7650 h1         2 MGO      0.080661
     35 C5         15.2000   18.9450   32.7960 c3         2 MGO      0.104343
     36 H5         16.1470   19.4410   33.0190 h1         2 MGO      0.068516
     37 O5         14.1490   19.9930   32.6880 os         2 MGO     -0.427383
     38 C6         15.3800   18.2770   31.4260 c3         2 MGO      0.141081
     39 H61        16.4240   17.9850   31.2930 h1         2 MGO      0.057384
     40 H62        15.1210   18.9780   30.6290 h1         2 MGO      0.057384
     41 O6         14.5600   17.1050   31.3200 oh         2 MGO     -0.593555
     42 HO6        15.0710   16.3500   31.6410 ho         2 MGO      0.422027
     43 C1         16.9410   25.3080   33.9120 c3         3 MGO      0.304529
     44 H1         17.0140   26.4050   33.7830 h2         3 MGO      0.090782
     45 O1         18.2500   24.7140   34.2140 os         3 MGO     -0.453070
     46 C2         15.9960   25.0290   35.0760 c3         3 MGO      0.092199
     47 H2         15.0320   25.5130   34.8920 h1         3 MGO      0.102926
     48 O2         16.5650   25.5340   36.2950 oh         3 MGO     -0.586639
     49 HO2        17.5160   25.6880   36.1790 ho         3 MGO      0.425065
     50 C3         15.8010   23.5380   35.2640 c3         3 MGO      0.093211
     51 H3         16.7490   23.0790   35.5590 h1         3 MGO      0.064468
     52 O3         14.8150   23.3800   36.2970 oh         3 MGO     -0.592567
     53 HO3        14.9910   24.0740   36.9490 ho         3 MGO      0.421017
     54 C4         15.2900   22.9090   33.9780 c3         3 MGO      0.127621
     55 H4         14.2890   23.2930   33.7660 h1         3 MGO      0.080661
     56 C5         16.2200   23.2230   32.7970 c3         3 MGO      0.104343
     57 H5         17.1990   22.7910   33.0190 h1         3 MGO      0.068516
     58 O5         16.3850   24.6970   32.6890 os         3 MGO     -0.427383
     59 C6         15.8100   22.6650   31.4270 c3         3 MGO      0.141081
     60 H61        16.2320   21.6670   31.2940 h1         3 MGO      0.057384
     61 H62        16.1960   23.3050   30.6290 h1         3 MGO      0.057384
     62 O6         14.3820   22.5750   31.3210 oh         3 MGO     -0.593555
     63 HO6        14.1120   21.7050   31.6420 ho         3 MGO      0.422027
     64 C1         22.2820   25.8280   33.9100 c3         4 MGO      0.304529
     65 H1         23.1850   26.4550   33.7820 h2         4 MGO      0.090782
     66 O1         22.6320   24.4340   34.2130 os         4 MGO     -0.453070
     67 C2         21.4740   26.3930   35.0750 c3         4 MGO      0.092199
     68 H2         21.2520   27.4480   34.8900 h1         4 MGO      0.102926
     69 O2         22.2240   26.2640   36.2940 oh         4 MGO     -0.586639
     70 HO2        22.9380   25.6160   36.1780 ho         4 MGO      0.425065
     71 C3         20.1880   25.6160   35.2630 c3         4 MGO      0.093211
     72 H3         20.4190   24.5890   35.5590 h1         4 MGO      0.064468
     73 O3         19.4490   26.2880   36.2960 oh         4 MGO     -0.592567
     74 HO3        20.1010   26.5840   36.9470 ho         4 MGO      0.421017
     75 C4         19.3760   25.6220   33.9780 c3         4 MGO      0.127621
     76 H4         19.0530   26.6440   33.7650 h1         4 MGO      0.080661
     77 C5         20.2020   25.0900   32.7970 c3         4 MGO      0.104343
     78 H5         20.4750   24.0560   33.0190 h1         4 MGO      0.068516
     79 O5         21.4570   25.8810   32.6880 os         4 MGO     -0.427383
     80 C6         19.5090   25.0640   31.4260 c3         4 MGO      0.141081
     81 H61        18.9920   24.1100   31.2940 h1         4 MGO      0.057384
     82 H62        20.2500   25.1600   30.6290 h1         4 MGO      0.057384
     83 O6         18.5490   26.1220   31.3210 oh         4 MGO     -0.593555
     84 HO6        17.7000   25.7930   31.6430 ho         4 MGO      0.422027
     85 C1         26.0170   21.9770   33.9100 c3         5 MGO      0.304529
     86 H1         27.0710   21.6620   33.7800 h2         5 MGO      0.090782
     87 O1         25.1470   20.8330   34.2130 os         5 MGO     -0.453070
     88 C2         25.9560   22.9610   35.0740 c3         5 MGO      0.092199
     89 H2         26.6430   23.7920   34.8890 h1         5 MGO      0.102926
     90 O2         26.3230   22.2940   36.2930 oh         5 MGO     -0.586639
     91 HO2        26.2610   21.3320   36.1780 ho         5 MGO      0.425065
     92 C3         24.5470   23.4830   35.2620 c3         5 MGO      0.093211
     93 H3         23.8880   22.6610   35.5580 h1         5 MGO      0.064468
     94 O3         24.6110   24.4790   36.2960 oh         5 MGO     -0.592567
     95 HO3        25.2490   24.1540   36.9460 ho         5 MGO      0.421017
     96 C4         24.0460   24.1200   33.9770 c3         5 MGO      0.127621
     97 H4         24.6430   25.0110   33.7640 h1         5 MGO      0.080661
     98 C5         24.1430   23.1420   32.7960 c3         5 MGO      0.104343
     99 H5         23.5060   22.2840   33.0190 h1         5 MGO      0.068516
    100 O5         25.5450   22.6550   32.6870 os         5 MGO     -0.427383
    101 C6         23.6910   23.6660   31.4250 c3         5 MGO      0.141081
    102 H61        22.6230   23.4770   31.2930 h1         5 MGO      0.057384
    103 H62        24.2280   23.1480   30.6280 h1         5 MGO      0.057384
    104 O6         23.9210   25.0780   31.3190 oh         5 MGO     -0.593555
    105 HO6        23.1330   25.5360   31.6420 ho         5 MGO      0.422027
    106 C1         25.3360   16.6540   33.9110 c3         6 MGO      0.304529
    107 H1         25.7480   15.6340   33.7830 h2         6 MGO      0.090782
    108 O1         23.8990   16.6210   34.2130 os         6 MGO     -0.453070
    109 C2         26.0680   17.3160   35.0750 c3         6 MGO      0.092199
    110 H2         27.1450   17.2980   34.8910 h1         6 MGO      0.102926
    111 O2         25.7740   16.6140   36.2940 oh         6 MGO     -0.586639
    112 HO2        24.9840   16.0620   36.1790 ho         6 MGO      0.425065
    113 C3         25.5960   18.7430   35.2640 c3         6 MGO      0.093211
    114 H3         24.5430   18.7460   35.5590 h1         6 MGO      0.064468
    115 O3         26.4150   19.3140   36.2970 oh         6 MGO     -0.592567
    116 HO3        26.5590   18.6130   36.9480 ho         6 MGO      0.421017
    117 C4         25.7830   19.5320   33.9770 c3         6 MGO      0.127621
    118 H4         26.8510   19.6210   33.7650 h1         6 MGO      0.080661
    119 C5         25.0790   18.8450   32.7970 c3         6 MGO      0.104343
    120 H5         24.0120   18.8100   33.0180 h1         6 MGO      0.068516
    121 O5         25.5720   17.4460   32.6880 os         6 MGO     -0.427383
    122 C6         25.2080   19.5260   31.4260 c3         6 MGO      0.141081
    123 H61        24.3940   20.2420   31.2930 h1         6 MGO      0.057384
    124 H62        25.1380   18.7810   30.6290 h1         6 MGO      0.057384
    125 O6         26.4550   20.2260   31.3200 oh         6 MGO     -0.593555
    126 HO6        26.3220   21.1280   31.6410 ho         6 MGO      0.422027
    127 C1         20.7500   13.8690   33.9110 c3         7 MGO      0.304529
    128 H1         20.2080   12.9120   33.7820 h2         7 MGO      0.090782
    129 O1         19.8290   14.9720   34.2130 os         7 MGO     -0.453070
    130 C2         21.7230   13.7090   35.0760 c3         7 MGO      0.092199
    131 H2         22.3810   12.8560   34.8910 h1         7 MGO      0.102926
    132 O2         20.9910   13.5020   36.2940 oh         7 MGO     -0.586639
    133 HO2        20.0670   13.7750   36.1790 ho         7 MGO      0.425065
    134 C3         22.5450   14.9680   35.2640 c3         7 MGO      0.093211
    135 H3         21.8910   15.7930   35.5590 h1         7 MGO      0.064468
    136 O3         23.5020   14.6830   36.2980 oh         7 MGO     -0.592567
    137 HO3        23.0430   14.1340   36.9480 ho         7 MGO      0.421017
    138 C4         23.2790   15.3150   33.9780 c3         7 MGO      0.127621
    139 H4         24.0140   14.5340   33.7660 h1         7 MGO      0.080661
    140 C5         22.3040   15.4360   32.7960 c3         7 MGO      0.104343
    141 H5         21.6090   16.2490   33.0190 h1         7 MGO      0.068516
    142 O5         21.5170   14.1780   32.6890 os         7 MGO     -0.427383
    143 C6         22.9160   15.7600   31.4260 c3         7 MGO      0.141081
    144 H61        22.9690   16.8420   31.2930 h1         7 MGO      0.057384
    145 H62        22.2910   15.3510   30.6290 h1         7 MGO      0.057384
    146 O6         24.2410   15.2210   31.3210 oh         7 MGO     -0.593555
    147 HO6        24.8630   15.8870   31.6430 ho         7 MGO      0.422027
@<TRIPOS>BOND
    1    17    20 1
    2    14    16 1
    3    14    17 1
    4    12    14 1
    5    12   129 1
    6     8    10 1
    7     8    12 1
    8     4     6 1
    9     4     8 1
   10     3    33 1
   11     1     3 1
   12     1     4 1
   13     1    16 1
   14    38    41 1
   15    35    37 1
   16    35    38 1
   17    33    35 1
   18    29    31 1
   19    29    33 1
   20    25    27 1
   21    25    29 1
   22    24    54 1
   23    22    24 1
   24    22    25 1
   25    22    37 1
   26    59    62 1
   27    56    58 1
   28    56    59 1
   29    54    56 1
   30    50    52 1
   31    50    54 1
   32    46    48 1
   33    46    50 1
   34    45    75 1
   35    43    45 1
   36    43    46 1
   37    43    58 1
   38    80    83 1
   39    77    79 1
   40    77    80 1
   41    75    77 1
   42    71    73 1
   43    71    75 1
   44    67    69 1
   45    67    71 1
   46    66    96 1
   47    64    66 1
   48    64    67 1
   49    64    79 1
   50   101   104 1
   51    98   100 1
   52    98   101 1
   53    96    98 1
   54    92    94 1
   55    92    96 1
   56    88    90 1
   57    88    92 1
   58    87   117 1
   59    85    87 1
   60    85    88 1
   61    85   100 1
   62   122   125 1
   63   119   121 1
   64   119   122 1
   65   117   119 1
   66   113   115 1
   67   113   117 1
   68   109   111 1
   69   109   113 1
   70   108   138 1
   71   106   108 1
   72   106   109 1
   73   106   121 1
   74   143   146 1
   75   140   142 1
   76   140   143 1
   77   138   140 1
   78   134   136 1
   79   134   138 1
   80   130   132 1
   81   130   134 1
   82   127   129 1
   83   127   130 1
   84   127   142 1
   85    20    21 1
   86    17    18 1
   87    17    19 1
   88    14    15 1
   89    12    13 1
   90    10    11 1
   91     8     9 1
   92     6     7 1
   93     4     5 1
   94     1     2 1
   95    41    42 1
   96    38    39 1
   97    38    40 1
   98    35    36 1
   99    33    34 1
  100    31    32 1
  101    29    30 1
  102    27    28 1
  103    25    26 1
  104    22    23 1
  105    62    63 1
  106    59    60 1
  107    59    61 1
  108    56    57 1
  109    54    55 1
  110    52    53 1
  111    50    51 1
  112    48    49 1
  113    46    47 1
  114    43    44 1
  115    83    84 1
  116    80    81 1
  117    80    82 1
  118    77    78 1
  119    75    76 1
  120    73    74 1
  121    71    72 1
  122    69    70 1
  123    67    68 1
  124    64    65 1
  125   104   105 1
  126   101   102 1
  127   101   103 1
  128    98    99 1
  129    96    97 1
  130    94    95 1
  131    92    93 1
  132    90    91 1
  133    88    89 1
  134    85    86 1
  135   125   126 1
  136   122   123 1
  137   122   124 1
  138   119   120 1
  139   117   118 1
  140   115   116 1
  141   113   114 1
  142   111   112 1
  143   109   110 1
  144   106   107 1
  145   146   147 1
  146   143   144 1
  147   143   145 1
  148   140   141 1
  149   138   139 1
  150   136   137 1
  151   134   135 1
  152   132   133 1
  153   130   131 1
  154   127   128 1
@<TRIPOS>SUBSTRUCTURE
      1 MGO               1 ****               0 ****  **** 
      2 MGO              22 ****               0 ****  **** 
      3 MGO              43 ****               0 ****  **** 
      4 MGO              64 ****               0 ****  **** 
      5 MGO              85 ****               0 ****  **** 
      6 MGO             106 ****               0 ****  **** 
      7 MGO             127 ****               0 ****  **** 
