@<TRIPOS>MOLECULE
Cpptraj generated mol2 file.
   22    22     1     0     0
SMALL
USER_CHARGES


@<TRIPOS>ATOM
      1 C1         18.5830   20.5320   36.7740 c3         1 MCH     -0.085100
      2 H2         17.6130   20.2810   36.3380 hc         1 MCH      0.044033
      3 H3         18.8820   19.7100   37.4280 hc         1 MCH      0.044033
      4 H4         18.4590   21.4300   37.3840 hc         1 MCH      0.044033
      5 C2         19.6350   20.7640   35.6660 c3         1 MCH      0.154800
      6 C3         19.8050   19.4750   34.8190 c3         1 MCH     -0.105400
      7 H5         18.8370   19.2170   34.3820 hc         1 MCH      0.051200
      8 H6         20.0920   18.6330   35.4550 hc         1 MCH      0.051200
      9 C4         20.8370   19.6310   33.6720 c3         1 MCH     -0.078900
     10 H7         21.8350   19.3770   34.0360 hc         1 MCH      0.041450
     11 H8         20.5960   18.9060   32.8900 hc         1 MCH      0.041450
     12 C5         20.8750   21.0530   33.0610 c3         1 MCH     -0.080400
     13 H9         21.0980   20.9870   31.9940 hc         1 MCH      0.038700
     14 H10        21.6840   21.6270   33.5190 hc         1 MCH      0.038700
     15 C6         19.5480   21.8060   33.2770 c3         1 MCH     -0.078900
     16 H11        19.5910   22.7870   32.7940 hc         1 MCH      0.041450
     17 H12        18.7410   21.2490   32.7930 hc         1 MCH      0.041450
     18 C7         19.2250   21.9820   34.7810 c3         1 MCH     -0.105400
     19 H13        19.7170   22.8870   35.1480 hc         1 MCH      0.051200
     20 H14        18.1500   22.1670   34.8680 hc         1 MCH      0.051200
     21 O1         20.8750   21.0530   36.3340 oh         1 MCH     -0.600800
     22 H1         21.5500   21.2250   35.6210 ho         1 MCH      0.400001
@<TRIPOS>BOND
    1    15    18 1
    2    12    15 1
    3     9    12 1
    4     6     9 1
    5     5     6 1
    6     5    18 1
    7     5    21 1
    8     1     5 1
    9    21    22 1
   10    18    19 1
   11    18    20 1
   12    15    16 1
   13    15    17 1
   14    12    13 1
   15    12    14 1
   16     9    10 1
   17     9    11 1
   18     6     7 1
   19     6     8 1
   20     1     2 1
   21     1     3 1
   22     1     4 1
@<TRIPOS>SUBSTRUCTURE
      1 MCH               1 ****               0 ****  **** 
