@<TRIPOS>MOLECULE
Cpptraj generated mol2 file.
  147   154     7     0     0
SMALL
USER_CHARGES


@<TRIPOS>ATOM
      1 C1         14.5930   17.4020   34.5450 c3         1 MGO      0.304529
      2 H1         13.4970   17.5090   34.4280 h2         1 MGO      0.090782
      3 O1         15.2300   18.6920   34.8440 os         1 MGO     -0.453070
      4 C2         14.8560   16.4450   35.7030 c3         1 MGO      0.092199
      5 H2         14.3420   15.4970   35.5210 h1         1 MGO      0.102926
      6 O2         14.3820   17.0250   36.9290 oh         1 MGO     -0.586639
      7 HO2        14.2570   17.9820   36.8190 ho         1 MGO      0.425065
      8 C3         16.3430   16.2040   35.8730 c3         1 MGO      0.093211
      9 H3         16.8330   17.1360   36.1650 h1         1 MGO      0.064468
     10 O3         16.4830   15.2110   36.9010 oh         1 MGO     -0.592567
     11 HO3        15.8030   15.4040   37.5600 ho         1 MGO      0.421017
     12 C4         16.9410   15.6790   34.5780 c3         1 MGO      0.127621
     13 H4         16.5260   14.6910   34.3670 h1         1 MGO      0.080661
     14 C5         16.6420   16.6240   33.4020 c3         1 MGO      0.104343
     15 H5         17.1060   17.5880   33.6230 h1         1 MGO      0.068516
     16 O5         15.1720   16.8310   33.3130 os         1 MGO     -0.427383
     17 C6         17.1710   16.1990   32.0250 c3         1 MGO      0.141081
     18 H61        18.1810   16.5930   31.8830 h1         1 MGO      0.057384
     19 H62        16.5340   16.6080   31.2370 h1         1 MGO      0.057384
     20 O6         17.2170   14.7720   31.9150 oh         1 MGO     -0.593555
     21 HO6        18.0820   14.4720   32.2240 ho         1 MGO      0.422027
     22 C1         14.2360   22.7560   34.5670 c3         2 MGO      0.304529
     23 H1         13.6340   23.6790   34.4480 h2         2 MGO      0.090782
     24 O1         15.6430   23.0650   34.8530 os         2 MGO     -0.453070
     25 C2         13.6590   21.9620   35.7350 c3         2 MGO      0.092199
     26 H2         12.5960   21.7730   35.5620 h1         2 MGO      0.102926
     27 O2         13.8260   22.7040   36.9540 oh         2 MGO     -0.586639
     28 HO2        14.4950   23.3980   36.8340 ho         2 MGO      0.425065
     29 C3         14.4000   20.6520   35.9100 c3         2 MGO      0.093211
     30 H3         15.4380   20.8510   36.1930 h1         2 MGO      0.064468
     31 O3         13.7180   19.9310   36.9490 oh         2 MGO     -0.592567
     32 HO3        13.4500   20.5900   37.6050 ho         2 MGO      0.421017
     33 C4         14.3540   19.8450   34.6220 c3         2 MGO      0.127621
     34 H4         13.3200   19.5530   34.4220 h1         2 MGO      0.080661
     35 C5         14.8970   20.6590   33.4360 c3         2 MGO      0.104343
     36 H5         15.9400   20.8990   33.6480 h1         2 MGO      0.068516
     37 O5         14.1420   21.9380   33.3410 os         2 MGO     -0.427383
     38 C6         14.8860   19.9700   32.0650 c3         2 MGO      0.141081
     39 H61        15.8210   19.4260   31.9190 h1         2 MGO      0.057384
     40 H62        14.8020   20.7160   31.2700 h1         2 MGO      0.057384
     41 O6         13.7960   19.0430   31.9690 oh         2 MGO     -0.593555
     42 HO6        14.1040   18.1840   32.2840 ho         2 MGO      0.422027
     43 C1         18.1980   26.3730   34.5300 c3         3 MGO      0.304529
     44 H1         18.5430   27.4180   34.4000 h2         3 MGO      0.090782
     45 O1         19.3180   25.4670   34.8160 os         3 MGO     -0.453070
     46 C2         17.2270   26.3370   35.7070 c3         3 MGO      0.092199
     47 H2         16.4150   27.0500   35.5350 h1         3 MGO      0.102926
     48 O2         17.9200   26.6800   36.9180 oh         3 MGO     -0.586639
     49 HO2        18.8780   26.5900   36.7910 ho         3 MGO      0.425065
     50 C3         16.6650   24.9440   35.8970 c3         3 MGO      0.093211
     51 H3         17.4700   24.2600   36.1790 h1         3 MGO      0.064468
     52 O3         15.6830   25.0360   36.9420 oh         3 MGO     -0.592567
     53 HO3        16.0370   25.6610   37.5910 ho         3 MGO      0.421017
     54 C4         15.9970   24.4680   34.6180 c3         3 MGO      0.127621
     55 H4         15.1220   25.0930   34.4180 h1         3 MGO      0.080661
     56 C5         16.9620   24.5410   33.4250 c3         3 MGO      0.104343
     57 H5         17.8030   23.8760   33.6350 h1         3 MGO      0.068516
     58 O5         17.4910   25.9260   33.3140 os         3 MGO     -0.427383
     59 C6         16.4080   24.1090   32.0590 c3         3 MGO      0.141081
     60 H61        16.5630   23.0370   31.9220 h1         3 MGO      0.057384
     61 H62        16.9330   24.6330   31.2570 h1         3 MGO      0.057384
     62 O6         15.0020   24.3820   31.9710 oh         3 MGO     -0.593555
     63 HO6        14.5250   23.6060   32.2960 ho         3 MGO      0.422027
     64 C1         23.4970   25.5300   34.4630 c3         4 MGO      0.304529
     65 H1         24.5280   25.9110   34.3230 h2         4 MGO      0.090782
     66 O1         23.4890   24.0930   34.7610 os         4 MGO     -0.453070
     67 C2         22.8720   26.2770   35.6370 c3         4 MGO      0.092199
     68 H2         22.9210   27.3550   35.4550 h1         4 MGO      0.102926
     69 O2         23.5800   25.9590   36.8470 oh         4 MGO     -0.586639
     70 HO2        24.1070   25.1530   36.7210 ho         4 MGO      0.425065
     71 C3         21.4340   25.8500   35.8420 c3         4 MGO      0.093211
     72 H3         21.4030   24.7960   36.1340 h1         4 MGO      0.064468
     73 O3         20.9010   26.6830   36.8840 oh         4 MGO     -0.592567
     74 HO3        21.6140   26.8040   37.5270 ho         4 MGO      0.421017
     75 C4         20.6340   26.0630   34.5670 c3         4 MGO      0.127621
     76 H4         20.5770   27.1350   34.3580 h1         4 MGO      0.080661
     77 C5         21.2850   25.3440   33.3750 c3         4 MGO      0.104343
     78 H5         21.2910   24.2740   33.5940 h1         4 MGO      0.068516
     79 O5         22.6970   25.7940   33.2510 os         4 MGO     -0.427383
     80 C6         20.5920   25.4980   32.0130 c3         4 MGO      0.141081
     81 H61        19.8490   24.7050   31.8870 h1         4 MGO      0.057384
     82 H62        21.3240   25.4060   31.2060 h1         4 MGO      0.057384
     83 O6         19.9280   26.7650   31.9190 oh         4 MGO     -0.593555
     84 HO6        19.0270   26.6590   32.2530 ho         4 MGO      0.422027
     85 C1         26.1420   20.8630   34.4170 c3         5 MGO      0.304529
     86 H1         27.0800   20.2930   34.2730 h2         5 MGO      0.090782
     87 O1         25.0150   19.9740   34.7300 os         5 MGO     -0.453070
     88 C2         26.3450   21.8270   35.5810 c3         5 MGO      0.092199
     89 H2         27.2150   22.4580   35.3870 h1         5 MGO      0.102926
     90 O2         26.5460   21.0860   36.7950 oh         5 MGO     -0.586639
     91 HO2        26.2420   20.1700   36.6810 ho         5 MGO      0.425065
     92 C3         25.1140   22.6860   35.7870 c3         5 MGO      0.093211
     93 H3         24.2730   22.0560   36.0910 h1         5 MGO      0.064468
     94 O3         25.4400   23.6300   36.8190 oh         5 MGO     -0.592567
     95 HO3        25.9830   23.1530   37.4620 ho         5 MGO      0.421017
     96 C4         24.7750   23.4330   34.5080 c3         5 MGO      0.127621
     97 H4         25.5740   24.1450   34.2880 h1         5 MGO      0.080661
     98 C5         24.6080   22.4660   33.3250 c3         5 MGO      0.104343
     99 H5         23.7780   21.7960   33.5560 h1         5 MGO      0.068516
    100 O5         25.8410   21.6410   33.1980 os         5 MGO     -0.427383
    101 C6         24.2860   23.0910   31.9610 c3         5 MGO      0.141081
    102 H61        23.2040   23.1780   31.8420 h1         5 MGO      0.057384
    103 H62        24.6660   22.4560   31.1570 h1         5 MGO      0.057384
    104 O6         24.8630   24.4000   31.8520 oh         5 MGO     -0.593555
    105 HO6        24.2200   25.0410   32.1830 ho         5 MGO      0.422027
    106 C1         24.1400   15.8840   34.4250 c3         6 MGO      0.304529
    107 H1         24.2800   14.7930   34.2920 h2         6 MGO      0.090782
    108 O1         22.7460   16.2130   34.7460 os         6 MGO     -0.453070
    109 C2         25.0290   16.3360   35.5810 c3         6 MGO      0.092199
    110 H2         26.0660   16.0480   35.3830 h1         6 MGO      0.102926
    111 O2         24.5830   15.7260   36.8030 oh         6 MGO     -0.586639
    112 HO2        23.6780   15.3920   36.6980 ho         6 MGO      0.425065
    113 C3         24.9350   17.8350   35.7750 c3         6 MGO      0.093211
    114 H3         23.9200   18.1030   36.0830 h1         6 MGO      0.064468
    115 O3         25.8840   18.1780   36.7970 oh         6 MGO     -0.592567
    116 HO3        25.8540   17.4610   37.4470 ho         6 MGO      0.421017
    117 C4         25.2990   18.5560   34.4860 c3         6 MGO      0.127621
    118 H4         26.3530   18.3730   34.2610 h1         6 MGO      0.080661
    119 C5         24.4310   18.0720   33.3140 c3         6 MGO      0.104343
    120 H5         23.3920   18.3060   33.5500 h1         6 MGO      0.068516
    121 O5         24.5540   16.5940   33.2000 os         6 MGO     -0.427383
    122 C6         24.7110   18.7020   31.9430 c3         6 MGO      0.141081
    123 H61        24.1020   19.6010   31.8200 h1         6 MGO      0.057384
    124 H62        24.4450   18.0030   31.1460 h1         6 MGO      0.057384
    125 O6         26.0920   19.0660   31.8210 oh         6 MGO     -0.593555
    126 HO6        26.1950   19.9720   32.1440 ho         6 MGO      0.422027
    127 C1         19.0000   14.3440   34.4830 c3         7 MGO      0.304529
    128 H1         18.2330   13.5550   34.3610 h2         7 MGO      0.090782
    129 O1         18.3910   15.6420   34.7960 os         7 MGO     -0.453070
    130 C2         19.9170   13.9410   35.6360 c3         7 MGO      0.092199
    131 H2         20.3360   12.9500   35.4420 h1         7 MGO      0.102926
    132 O2         19.1700   13.9200   36.8630 oh         7 MGO     -0.586639
    133 HO2        18.3440   14.4190   36.7580 ho         7 MGO      0.425065
    134 C3         21.0310   14.9510   35.8130 c3         7 MGO      0.093211
    135 H3         20.6100   15.9140   36.1170 h1         7 MGO      0.064468
    136 O3         21.8980   14.4310   36.8350 oh         7 MGO     -0.592567
    137 HO3        21.3230   14.0130   37.4900 ho         7 MGO      0.421017
    138 C4         21.8130   15.1050   34.5180 c3         7 MGO      0.127621
    139 H4         22.3250   14.1650   34.2970 h1         7 MGO      0.080661
    140 C5         20.8860   15.4720   33.3490 c3         7 MGO      0.104343
    141 H5         20.4220   16.4330   33.5800 h1         7 MGO      0.068516
    142 O5         19.8060   14.4530   33.2510 os         7 MGO     -0.427383
    143 C6         21.5430   15.6360   31.9710 c3         7 MGO      0.141081
    144 H61        21.8660   16.6700   31.8380 h1         7 MGO      0.057384
    145 H62        20.8250   15.4000   31.1820 h1         7 MGO      0.057384
    146 O6         22.6890   14.7810   31.8490 oh         7 MGO     -0.593555
    147 HO6        23.4620   15.2680   32.1630 ho         7 MGO      0.422027
@<TRIPOS>BOND
    1    17    20 1
    2    14    16 1
    3    14    17 1
    4    12    14 1
    5    12   129 1
    6     8    10 1
    7     8    12 1
    8     4     6 1
    9     4     8 1
   10     3    33 1
   11     1     3 1
   12     1     4 1
   13     1    16 1
   14    38    41 1
   15    35    37 1
   16    35    38 1
   17    33    35 1
   18    29    31 1
   19    29    33 1
   20    25    27 1
   21    25    29 1
   22    24    54 1
   23    22    24 1
   24    22    25 1
   25    22    37 1
   26    59    62 1
   27    56    58 1
   28    56    59 1
   29    54    56 1
   30    50    52 1
   31    50    54 1
   32    46    48 1
   33    46    50 1
   34    45    75 1
   35    43    45 1
   36    43    46 1
   37    43    58 1
   38    80    83 1
   39    77    79 1
   40    77    80 1
   41    75    77 1
   42    71    73 1
   43    71    75 1
   44    67    69 1
   45    67    71 1
   46    66    96 1
   47    64    66 1
   48    64    67 1
   49    64    79 1
   50   101   104 1
   51    98   100 1
   52    98   101 1
   53    96    98 1
   54    92    94 1
   55    92    96 1
   56    88    90 1
   57    88    92 1
   58    87   117 1
   59    85    87 1
   60    85    88 1
   61    85   100 1
   62   122   125 1
   63   119   121 1
   64   119   122 1
   65   117   119 1
   66   113   115 1
   67   113   117 1
   68   109   111 1
   69   109   113 1
   70   108   138 1
   71   106   108 1
   72   106   109 1
   73   106   121 1
   74   143   146 1
   75   140   142 1
   76   140   143 1
   77   138   140 1
   78   134   136 1
   79   134   138 1
   80   130   132 1
   81   130   134 1
   82   127   129 1
   83   127   130 1
   84   127   142 1
   85    20    21 1
   86    17    18 1
   87    17    19 1
   88    14    15 1
   89    12    13 1
   90    10    11 1
   91     8     9 1
   92     6     7 1
   93     4     5 1
   94     1     2 1
   95    41    42 1
   96    38    39 1
   97    38    40 1
   98    35    36 1
   99    33    34 1
  100    31    32 1
  101    29    30 1
  102    27    28 1
  103    25    26 1
  104    22    23 1
  105    62    63 1
  106    59    60 1
  107    59    61 1
  108    56    57 1
  109    54    55 1
  110    52    53 1
  111    50    51 1
  112    48    49 1
  113    46    47 1
  114    43    44 1
  115    83    84 1
  116    80    81 1
  117    80    82 1
  118    77    78 1
  119    75    76 1
  120    73    74 1
  121    71    72 1
  122    69    70 1
  123    67    68 1
  124    64    65 1
  125   104   105 1
  126   101   102 1
  127   101   103 1
  128    98    99 1
  129    96    97 1
  130    94    95 1
  131    92    93 1
  132    90    91 1
  133    88    89 1
  134    85    86 1
  135   125   126 1
  136   122   123 1
  137   122   124 1
  138   119   120 1
  139   117   118 1
  140   115   116 1
  141   113   114 1
  142   111   112 1
  143   109   110 1
  144   106   107 1
  145   146   147 1
  146   143   144 1
  147   143   145 1
  148   140   141 1
  149   138   139 1
  150   136   137 1
  151   134   135 1
  152   132   133 1
  153   130   131 1
  154   127   128 1
@<TRIPOS>SUBSTRUCTURE
      1 MGO               1 ****               0 ****  **** 
      2 MGO              22 ****               0 ****  **** 
      3 MGO              43 ****               0 ****  **** 
      4 MGO              64 ****               0 ****  **** 
      5 MGO              85 ****               0 ****  **** 
      6 MGO             106 ****               0 ****  **** 
      7 MGO             127 ****               0 ****  **** 
