@<TRIPOS>MOLECULE
Cpptraj generated mol2 file.
  126   132     6     0     0
SMALL
USER_CHARGES


@<TRIPOS>ATOM
      1 C1         24.0240   16.0640   32.5170 c3         1 MGO      0.304529
      2 H1         25.1210   16.0120   32.6670 h2         1 MGO      0.090782
      3 O1         23.6000   17.4150   32.1270 os         1 MGO     -0.453070
      4 C2         23.6420   15.1030   31.3960 c3         1 MGO      0.092199
      5 H2         23.9720   14.0900   31.6440 h1         1 MGO      0.102926
      6 O2         24.2630   15.5350   30.1730 oh         1 MGO     -0.586639
      7 HO2        24.5120   16.4680   30.2490 ho         1 MGO      0.425065
      8 C3         22.1460   15.1290   31.1650 c3         1 MGO      0.093211
      9 H3         21.8550   16.1170   30.7970 h1         1 MGO      0.064468
     10 O3         21.8580   14.1240   30.1800 oh         1 MGO     -0.592567
     11 HO3        22.5870   14.1430   29.5450 ho         1 MGO      0.421017
     12 C4         21.3860   14.8140   32.4460 c3         1 MGO      0.127621
     13 H4         21.5340   13.7610   32.7000 h1         1 MGO      0.080661
     14 C5         21.8380   15.7100   33.6120 c3         1 MGO      0.104343
     15 H5         21.5700   16.7380   33.3590 h1         1 MGO      0.068516
     16 O5         23.3190   15.6470   33.7430 os         1 MGO     -0.427383
     17 C6         21.2140   15.4400   34.9890 c3         1 MGO      0.141081
     18 H61        20.3260   16.0630   35.1190 h1         1 MGO      0.057384
     19 H62        21.9230   15.6930   35.7810 h1         1 MGO      0.057384
     20 O6         20.8280   14.0640   35.1130 oh         1 MGO     -0.593555
     21 HO6        19.9190   13.9790   34.7980 ho         1 MGO      0.422027
     22 C1         24.8090   21.3810   32.4640 c3         2 MGO      0.304529
     23 H1         25.4030   22.3060   32.6020 h2         2 MGO      0.090782
     24 O1         23.4250   21.6860   32.0810 os         2 MGO     -0.453070
     25 C2         25.4430   20.5610   31.3460 c3         2 MGO      0.092199
     26 H2         26.4870   20.3430   31.5880 h1         2 MGO      0.102926
     27 O2         25.3710   21.3030   30.1180 oh         2 MGO     -0.586639
     28 HO2        24.6880   21.9870   30.1910 ho         2 MGO      0.425065
     29 C3         24.6700   19.2750   31.1320 c3         2 MGO      0.093211
     30 H3         23.6660   19.5140   30.7690 h1         2 MGO      0.064468
     31 O3         25.3900   18.5140   30.1490 oh         2 MGO     -0.592567
     32 HO3        25.7330   19.1510   29.5050 ho         2 MGO      0.421017
     33 C4         24.5720   18.4710   32.4210 c3         2 MGO      0.127621
     34 H4         25.5600   18.0750   32.6710 h1         2 MGO      0.080661
     35 C5         24.0300   19.3220   33.5840 c3         2 MGO      0.104343
     36 H5         23.0040   19.6000   33.3350 h1         2 MGO      0.068516
     37 O5         24.8270   20.5730   33.6970 os         2 MGO     -0.427383
     38 C6         23.9630   18.6570   34.9670 c3         2 MGO      0.141081
     39 H61        22.9810   18.2010   35.1080 h1         2 MGO      0.057384
     40 H62        24.1040   19.4050   35.7500 h1         2 MGO      0.057384
     41 O6         24.9620   17.6380   35.0930 oh         2 MGO     -0.593555
     42 HO6        24.5790   16.8040   34.7870 ho         2 MGO      0.422027
     43 C1         20.5960   24.7200   32.4100 c3         3 MGO      0.304529
     44 H1         20.0950   25.6980   32.5430 h2         3 MGO      0.090782
     45 O1         19.6380   23.6700   32.0430 os         3 MGO     -0.453070
     46 C2         21.6160   24.8480   31.2840 c3         3 MGO      0.092199
     47 H2         22.3300   25.6440   31.5140 h1         3 MGO      0.102926
     48 O2         20.9300   25.1470   30.0580 oh         3 MGO     -0.586639
     49 HO2        19.9960   24.8970   30.1400 ho         3 MGO      0.425065
     50 C3         22.3420   23.5340   31.0770 c3         3 MGO      0.093211
     51 H3         21.6310   22.7810   30.7260 h1         3 MGO      0.064468
     52 O3         23.3540   23.7680   30.0840 oh         3 MGO     -0.592567
     53 HO3        22.9700   24.3780   29.4390 ho         3 MGO      0.421017
     54 C4         22.9980   23.0590   32.3650 c3         3 MGO      0.127621
     55 H4         23.8360   23.7180   32.6050 h1         3 MGO      0.080661
     56 C5         21.9980   23.0260   33.5360 c3         3 MGO      0.104343
     57 H5         21.2430   22.2740   33.2980 h1         3 MGO      0.068516
     58 O5         21.3130   24.3420   33.6420 os         3 MGO     -0.427383
     59 C6         22.5490   22.6470   34.9180 c3         3 MGO      0.141081
     60 H61        22.4540   21.5700   35.0700 h1         3 MGO      0.057384
     61 H62        21.9770   23.1500   35.7010 h1         3 MGO      0.057384
     62 O6         23.9330   23.0040   35.0320 oh         3 MGO     -0.593555
     63 HO6        24.4600   22.2530   34.7290 ho         3 MGO      0.422027
     64 C1         15.5990   22.7410   32.4080 c3         4 MGO      0.304529
     65 H1         14.5010   22.7960   32.5480 h2         4 MGO      0.090782
     66 O1         16.0260   21.3830   32.0510 os         4 MGO     -0.453070
     67 C2         15.9900   23.6790   31.2710 c3         4 MGO      0.092199
     68 H2         15.6580   24.6960   31.4940 h1         4 MGO      0.102926
     69 O2         15.3800   23.2220   30.0530 oh         4 MGO     -0.586639
     70 HO2        15.1300   22.2890   30.1450 ho         4 MGO      0.425065
     71 C3         17.4890   23.6480   31.0540 c3         4 MGO      0.093211
     72 H3         17.7830   22.6520   30.7090 h1         4 MGO      0.064468
     73 O3         17.7860   24.6320   30.0500 oh         4 MGO     -0.592567
     74 HO3        17.0620   24.5980   29.4100 ho         4 MGO      0.421017
     75 C4         18.2370   23.9900   32.3340 c3         4 MGO      0.127621
     76 H4         18.0870   25.0480   32.5650 h1         4 MGO      0.080661
     77 C5         17.7750   23.1180   33.5150 c3         4 MGO      0.104343
     78 H5         18.0450   22.0860   33.2860 h1         4 MGO      0.068516
     79 O5         16.2930   23.1840   33.6310 os         4 MGO     -0.427383
     80 C6         18.3870   23.4190   34.8910 c3         4 MGO      0.141081
     81 H61        19.2740   22.7990   35.0430 h1         4 MGO      0.057384
     82 H62        17.6710   23.1830   35.6820 h1         4 MGO      0.057384
     83 O6         18.7710   24.7960   34.9900 oh         4 MGO     -0.593555
     84 HO6        19.6830   24.8740   34.6800 ho         4 MGO      0.422027
     85 C1         14.8140   17.4240   32.4620 c3         5 MGO      0.304529
     86 H1         14.2190   16.5020   32.6150 h2         5 MGO      0.090782
     87 O1         16.2020   17.1120   32.0970 os         5 MGO     -0.453070
     88 C2         14.1890   18.2200   31.3210 c3         5 MGO      0.092199
     89 H2         13.1440   18.4440   31.5500 h1         5 MGO      0.102926
     90 O2         14.2730   17.4520   30.1100 oh         5 MGO     -0.586639
     91 HO2        14.9550   16.7710   30.2040 ho         5 MGO      0.425065
     92 C3         14.9640   19.5010   31.0870 c3         5 MGO      0.093211
     93 H3         15.9710   19.2550   30.7380 h1         5 MGO      0.064468
     94 O3         14.2530   20.2410   30.0810 oh         5 MGO     -0.592567
     95 HO3        13.9160   19.5920   29.4500 ho         5 MGO      0.421017
     96 C4         15.0500   20.3330   32.3590 c3         5 MGO      0.127621
     97 H4         14.0610   20.7340   32.5930 h1         5 MGO      0.080661
     98 C5         15.5830   19.5070   33.5450 c3         5 MGO      0.104343
     99 H5         16.6100   19.2230   33.3110 h1         5 MGO      0.068516
    100 O5         14.7850   18.2590   33.6770 os         5 MGO     -0.427383
    101 C6         15.6380   20.2010   34.9130 c3         5 MGO      0.141081
    102 H61        16.6190   20.6600   35.0540 h1         5 MGO      0.057384
    103 H62        15.4900   19.4700   35.7120 h1         5 MGO      0.057384
    104 O6         14.6380   21.2230   35.0090 oh         5 MGO     -0.593555
    105 HO6        15.0240   22.0490   34.6890 ho         5 MGO      0.422027
    106 C1         19.0270   14.0860   32.5160 c3         6 MGO      0.304529
    107 H1         19.5280   13.1100   32.6750 h2         6 MGO      0.090782
    108 O1         19.9880   15.1270   32.1350 os         6 MGO     -0.453070
    109 C2         18.0160   13.9340   31.3840 c3         6 MGO      0.092199
    110 H2         17.3010   13.1420   31.6250 h1         6 MGO      0.102926
    111 O2         18.7140   13.6090   30.1710 oh         6 MGO     -0.586639
    112 HO2        19.6460   13.8600   30.2550 ho         6 MGO      0.425065
    113 C3         17.2930   15.2420   31.1430 c3         6 MGO      0.093211
    114 H3         18.0070   15.9870   30.7820 h1         6 MGO      0.064468
    115 O3         16.2890   14.9870   30.1470 oh         6 MGO     -0.592567
    116 HO3        16.6790   14.3640   29.5180 ho         6 MGO      0.421017
    117 C4         16.6260   15.7450   32.4150 c3         6 MGO      0.127621
    118 H4         15.7850   15.0900   32.6620 h1         6 MGO      0.080661
    119 C5         17.6150   15.8030   33.5930 c3         6 MGO      0.104343
    120 H5         18.3730   16.5500   33.3470 h1         6 MGO      0.068516
    121 O5         18.2990   14.4890   33.7330 os         6 MGO     -0.427383
    122 C6         17.0520   16.2120   34.9620 c3         6 MGO      0.141081
    123 H61        17.1460   17.2920   35.0920 h1         6 MGO      0.057384
    124 H62        17.6170   15.7250   35.7620 h1         6 MGO      0.057384
    125 O6         15.6670   15.8570   35.0720 oh         6 MGO     -0.593555
    126 HO6        15.1420   16.6010   34.7490 ho         6 MGO      0.422027
@<TRIPOS>BOND
    1    17    20 1
    2    14    16 1
    3    14    17 1
    4    12    14 1
    5    12   108 1
    6     8    10 1
    7     8    12 1
    8     4     6 1
    9     4     8 1
   10     3    33 1
   11     1     3 1
   12     1     4 1
   13     1    16 1
   14    38    41 1
   15    35    37 1
   16    35    38 1
   17    33    35 1
   18    29    31 1
   19    29    33 1
   20    25    27 1
   21    25    29 1
   22    24    54 1
   23    22    24 1
   24    22    25 1
   25    22    37 1
   26    59    62 1
   27    56    58 1
   28    56    59 1
   29    54    56 1
   30    50    52 1
   31    50    54 1
   32    46    48 1
   33    46    50 1
   34    45    75 1
   35    43    45 1
   36    43    46 1
   37    43    58 1
   38    80    83 1
   39    77    79 1
   40    77    80 1
   41    75    77 1
   42    71    73 1
   43    71    75 1
   44    67    69 1
   45    67    71 1
   46    66    96 1
   47    64    66 1
   48    64    67 1
   49    64    79 1
   50   101   104 1
   51    98   100 1
   52    98   101 1
   53    96    98 1
   54    92    94 1
   55    92    96 1
   56    88    90 1
   57    88    92 1
   58    87   117 1
   59    85    87 1
   60    85    88 1
   61    85   100 1
   62   122   125 1
   63   119   121 1
   64   119   122 1
   65   117   119 1
   66   113   115 1
   67   113   117 1
   68   109   111 1
   69   109   113 1
   70   106   108 1
   71   106   109 1
   72   106   121 1
   73    20    21 1
   74    17    18 1
   75    17    19 1
   76    14    15 1
   77    12    13 1
   78    10    11 1
   79     8     9 1
   80     6     7 1
   81     4     5 1
   82     1     2 1
   83    41    42 1
   84    38    39 1
   85    38    40 1
   86    35    36 1
   87    33    34 1
   88    31    32 1
   89    29    30 1
   90    27    28 1
   91    25    26 1
   92    22    23 1
   93    62    63 1
   94    59    60 1
   95    59    61 1
   96    56    57 1
   97    54    55 1
   98    52    53 1
   99    50    51 1
  100    48    49 1
  101    46    47 1
  102    43    44 1
  103    83    84 1
  104    80    81 1
  105    80    82 1
  106    77    78 1
  107    75    76 1
  108    73    74 1
  109    71    72 1
  110    69    70 1
  111    67    68 1
  112    64    65 1
  113   104   105 1
  114   101   102 1
  115   101   103 1
  116    98    99 1
  117    96    97 1
  118    94    95 1
  119    92    93 1
  120    90    91 1
  121    88    89 1
  122    85    86 1
  123   125   126 1
  124   122   123 1
  125   122   124 1
  126   119   120 1
  127   117   118 1
  128   115   116 1
  129   113   114 1
  130   111   112 1
  131   109   110 1
  132   106   107 1
@<TRIPOS>SUBSTRUCTURE
      1 MGO               1 ****               0 ****  **** 
      2 MGO              22 ****               0 ****  **** 
      3 MGO              43 ****               0 ****  **** 
      4 MGO              64 ****               0 ****  **** 
      5 MGO              85 ****               0 ****  **** 
      6 MGO             106 ****               0 ****  **** 
