@<TRIPOS>MOLECULE
Cpptraj
   26    25     1     0     0
SMALL
No Charge or Current Charge


@<TRIPOS>ATOM
      1 N1          19.8390    19.1340    38.8150 N.4        1 NMH      -0.759223
      2 H1          20.6550    18.4950    38.8440 H          1 NMH       0.454667
      3 H18         19.0010    18.5250    38.8440 H          1 NMH       0.454667
      4 C1          19.8530    19.9290    37.5310 C.3        1 NMH       0.099771
      5 H2          20.7530    20.5500    37.5490 H          1 NMH       0.109668
      6 H3          18.9770    20.5820    37.5490 H          1 NMH       0.109668
      7 C2          19.8380    19.0630    36.2570 C.3        1 NMH      -0.111433
      8 H4          20.7090    18.4030    36.2520 H          1 NMH       0.068680
      9 H5          18.9430    18.4340    36.2520 H          1 NMH       0.068680
     10 C3          19.8540    19.9500    34.9950 C.3        1 NMH      -0.078423
     11 H6          20.7470    20.5790    35.0040 H          1 NMH       0.056683
     12 H7          18.9830    20.6110    35.0040 H          1 NMH       0.056683
     13 C4          19.8380    19.0960    33.7100 C.3        1 NMH      -0.080424
     14 H8          20.7090    18.4350    33.7000 H          1 NMH       0.048686
     15 H9          18.9450    18.4670    33.7000 H          1 NMH       0.048686
     16 C5          19.8540    19.9840    32.4480 C.3        1 NMH      -0.079423
     17 H10         20.7480    20.6140    32.4520 H          1 NMH       0.044687
     18 H11         18.9840    20.6460    32.4520 H          1 NMH       0.044687
     19 C6          19.8390    19.1340    31.1640 C.3        1 NMH      -0.097128
     20 H12         20.7140    18.4820    31.1230 H          1 NMH       0.042687
     21 H13         19.8510    19.7790    30.2830 H          1 NMH       0.042687
     22 H14         18.9410    18.5140    31.1230 H          1 NMH       0.042687
     23 C7          19.8560    20.0640    40.0080 C.3        1 NMH       0.078077
     24 H15         18.9700    20.7040    39.9680 H          1 NMH       0.111334
     25 H16         19.8450    19.4650    40.9220 H          1 NMH       0.111334
     26 H17         20.7640    20.6720    39.9680 H          1 NMH       0.111335
@<TRIPOS>BOND
     1    16    19 1   
     2    13    16 1   
     3    10    13 1   
     4     7    10 1   
     5     4     7 1   
     6     1     4 1   
     7     1    23 1   
     8    23    24 1   
     9    23    25 1   
    10    23    26 1   
    11    19    20 1   
    12    19    21 1   
    13    19    22 1   
    14    16    17 1   
    15    16    18 1   
    16    13    14 1   
    17    13    15 1   
    18    10    11 1   
    19    10    12 1   
    20     7     8 1   
    21     7     9 1   
    22     4     5 1   
    23     4     6 1   
    24     1     2 1   
    25     1     3 1   
@<TRIPOS>SUBSTRUCTURE
     1 NMH         1 TEMP              0 ****  ****    0 ROOT
