@<TRIPOS>MOLECULE
Cpptraj generated mol2 file.
  126   132     6     0     0
SMALL
USER_CHARGES


@<TRIPOS>ATOM
      1 C1         19.5200   14.1510   33.1080 c3         1 MGO      0.304529
      2 H1         20.1840   13.2770   33.2530 h2         1 MGO      0.090782
      3 O1         20.2830   15.3480   32.7340 os         1 MGO     -0.453070
      4 C2         18.5440   13.8380   31.9790 c3         1 MGO      0.092199
      5 H2         17.9790   12.9310   32.2140 h1         1 MGO      0.102926
      6 O2         19.2800   13.6520   30.7580 oh         1 MGO     -0.586639
      7 HO2        20.1550   14.0600   30.8420 ho         1 MGO      0.425065
      8 C3         17.6030   15.0030   31.7550 c3         1 MGO      0.093211
      9 H3         18.1740   15.8640   31.3990 h1         1 MGO      0.064468
     10 O3         16.6530   14.5870   30.7610 oh         1 MGO     -0.592567
     11 HO3        17.1400   14.0470   30.1230 ho         1 MGO      0.421017
     12 C4         16.8660   15.3690   33.0350 c3         1 MGO      0.127621
     13 H4         16.1530   14.5760   33.2780 h1         1 MGO      0.080661
     14 C5         17.8370   15.5870   34.2100 c3         1 MGO      0.104343
     15 H5         18.4530   16.4560   33.9680 h1         1 MGO      0.068516
     16 O5         18.7400   14.4100   34.3330 os         1 MGO     -0.427383
     17 C6         17.2210   15.8770   35.5860 c3         1 MGO      0.141081
     18 H61        17.1270   16.9560   35.7270 h1         1 MGO      0.057384
     19 H62        17.8660   15.4880   36.3770 h1         1 MGO      0.057384
     20 O6         15.9190   15.2860   35.6970 oh         1 MGO     -0.593555
     21 HO6        15.2710   15.9310   35.3850 ho         1 MGO      0.422027
     22 C1         24.0970   16.9690   33.1090 c3         2 MGO      0.304529
     23 H1         25.1860   17.1070   33.2540 h2         2 MGO      0.090782
     24 O1         23.4420   18.2290   32.7350 os         2 MGO     -0.453070
     25 C2         23.8820   15.9680   31.9790 c3         2 MGO      0.092199
     26 H2         24.3850   15.0250   32.2150 h1         2 MGO      0.102926
     27 O2         24.4110   16.5130   30.7600 oh         2 MGO     -0.586639
     28 HO2        24.4950   17.4750   30.8430 ho         2 MGO      0.425065
     29 C3         22.4020   15.7350   31.7550 c3         2 MGO      0.093211
     30 H3         21.9410   16.6610   31.3990 h1         2 MGO      0.064468
     31 O3         22.2870   14.7040   30.7610 oh         2 MGO     -0.592567
     32 HO3        22.9980   14.8580   30.1230 ho         2 MGO      0.421017
     33 C4         21.7160   15.2790   33.0350 c3         2 MGO      0.127621
     34 H4         22.0460   14.2660   33.2780 h1         2 MGO      0.080661
     35 C5         22.0130   16.2300   34.2100 c3         2 MGO      0.104343
     36 H5         21.5680   17.1970   33.9690 h1         2 MGO      0.068516
     37 O5         23.4830   16.4230   34.3330 os         2 MGO     -0.427383
     38 C6         21.4530   15.8400   35.5860 c3         2 MGO      0.141081
     39 H61        20.4720   16.2970   35.7270 h1         2 MGO      0.057384
     40 H62        22.1120   16.2050   36.3770 h1         2 MGO      0.057384
     41 O6         21.3140   14.4180   35.6970 oh         2 MGO     -0.593555
     42 HO6        20.4310   14.1790   35.3840 ho         2 MGO      0.422027
     43 C1         23.9450   22.3430   33.1090 c3         3 MGO      0.304529
     44 H1         24.3710   23.3540   33.2550 h2         3 MGO      0.090782
     45 O1         22.5270   22.4050   32.7350 os         3 MGO     -0.453070
     46 C2         24.7050   21.6550   31.9800 c3         3 MGO      0.092199
     47 H2         25.7730   21.6180   32.2160 h1         3 MGO      0.102926
     48 O2         24.4990   22.3860   30.7600 oh         3 MGO     -0.586639
     49 HO2        23.7080   22.9390   30.8440 ho         3 MGO      0.425065
     50 C3         24.1670   20.2570   31.7560 c3         3 MGO      0.093211
     51 H3         23.1350   20.3210   31.4000 h1         3 MGO      0.064468
     52 O3         25.0020   19.6420   30.7610 oh         3 MGO     -0.592567
     53 HO3        25.2250   20.3350   30.1250 ho         3 MGO      0.421017
     54 C4         24.2180   19.4350   33.0360 c3         3 MGO      0.127621
     55 H4         25.2610   19.2150   33.2800 h1         3 MGO      0.080661
     56 C5         23.5430   20.1680   34.2110 c3         3 MGO      0.104343
     57 H5         22.4830   20.2660   33.9690 h1         3 MGO      0.068516
     58 O5         24.1100   21.5370   34.3340 os         3 MGO     -0.427383
     59 C6         23.6000   19.4880   35.5870 c3         3 MGO      0.141081
     60 H61        22.7130   18.8670   35.7270 h1         3 MGO      0.057384
     61 H62        23.6130   20.2420   36.3770 h1         3 MGO      0.057384
     62 O6         24.7620   18.6560   35.6980 oh         3 MGO     -0.593555
     63 HO6        24.5270   17.7730   35.3850 ho         3 MGO      0.422027
     64 C1         19.2170   24.8980   33.1080 c3         4 MGO      0.304529
     65 H1         18.5520   25.7720   33.2540 h2         4 MGO      0.090782
     66 O1         18.4530   23.7010   32.7350 os         4 MGO     -0.453070
     67 C2         20.1920   25.2130   31.9790 c3         4 MGO      0.092199
     68 H2         20.7570   26.1190   32.2150 h1         4 MGO      0.102926
     69 O2         19.4570   25.3990   30.7600 oh         4 MGO     -0.586639
     70 HO2        18.5810   24.9890   30.8430 ho         4 MGO      0.425065
     71 C3         21.1330   24.0470   31.7550 c3         4 MGO      0.093211
     72 H3         20.5620   23.1850   31.3990 h1         4 MGO      0.064468
     73 O3         22.0830   24.4620   30.7610 oh         4 MGO     -0.592567
     74 HO3        21.5960   25.0020   30.1240 ho         4 MGO      0.421017
     75 C4         21.8700   23.6810   33.0360 c3         4 MGO      0.127621
     76 H4         22.5820   24.4730   33.2790 h1         4 MGO      0.080661
     77 C5         20.8990   23.4620   34.2100 c3         4 MGO      0.104343
     78 H5         20.2830   22.5940   33.9680 h1         4 MGO      0.068516
     79 O5         19.9960   24.6380   34.3330 os         4 MGO     -0.427383
     80 C6         21.5150   23.1720   35.5860 c3         4 MGO      0.141081
     81 H61        21.6100   22.0930   35.7270 h1         4 MGO      0.057384
     82 H62        20.8700   23.5610   36.3770 h1         4 MGO      0.057384
     83 O6         22.8160   23.7630   35.6980 oh         4 MGO     -0.593555
     84 HO6        23.4640   23.1180   35.3850 ho         4 MGO      0.422027
     85 C1         14.6400   22.0800   33.1090 c3         5 MGO      0.304529
     86 H1         13.5500   21.9420   33.2550 h2         5 MGO      0.090782
     87 O1         15.2950   20.8200   32.7350 os         5 MGO     -0.453070
     88 C2         14.8540   23.0820   31.9790 c3         5 MGO      0.092199
     89 H2         14.3520   24.0240   32.2150 h1         5 MGO      0.102926
     90 O2         14.3250   22.5370   30.7590 oh         5 MGO     -0.586639
     91 HO2        14.2420   21.5750   30.8430 ho         5 MGO      0.425065
     92 C3         16.3340   23.3150   31.7550 c3         5 MGO      0.093211
     93 H3         16.7950   22.3880   31.3990 h1         5 MGO      0.064468
     94 O3         16.4490   24.3450   30.7610 oh         5 MGO     -0.592567
     95 HO3        15.7380   24.1930   30.1240 ho         5 MGO      0.421017
     96 C4         17.0200   23.7700   33.0360 c3         5 MGO      0.127621
     97 H4         16.6900   24.7830   33.2780 h1         5 MGO      0.080661
     98 C5         16.7230   22.8190   34.2100 c3         5 MGO      0.104343
     99 H5         17.1680   21.8520   33.9690 h1         5 MGO      0.068516
    100 O5         15.2540   22.6260   34.3330 os         5 MGO     -0.427383
    101 C6         17.2830   23.2090   35.5860 c3         5 MGO      0.141081
    102 H61        18.2650   22.7510   35.7270 h1         5 MGO      0.057384
    103 H62        16.6240   22.8440   36.3780 h1         5 MGO      0.057384
    104 O6         17.4220   24.6310   35.6970 oh         5 MGO     -0.593555
    105 HO6        18.3040   24.8700   35.3850 ho         5 MGO      0.422027
    106 C1         14.7910   16.7070   33.1080 c3         6 MGO      0.304529
    107 H1         14.3650   15.6950   33.2550 h2         6 MGO      0.090782
    108 O1         16.2090   16.6440   32.7340 os         6 MGO     -0.453070
    109 C2         14.0310   17.3940   31.9800 c3         6 MGO      0.092199
    110 H2         12.9630   17.4310   32.2150 h1         6 MGO      0.102926
    111 O2         14.2380   16.6640   30.7590 oh         6 MGO     -0.586639
    112 HO2        15.0290   16.1110   30.8430 ho         6 MGO      0.425065
    113 C3         14.5690   18.7930   31.7550 c3         6 MGO      0.093211
    114 H3         15.6020   18.7280   31.3990 h1         6 MGO      0.064468
    115 O3         13.7330   19.4070   30.7620 oh         6 MGO     -0.592567
    116 HO3        13.5110   18.7150   30.1240 ho         6 MGO      0.421017
    117 C4         14.5180   19.6130   33.0360 c3         6 MGO      0.127621
    118 H4         13.4750   19.8340   33.2790 h1         6 MGO      0.080661
    119 C5         15.1930   18.8820   34.2100 c3         6 MGO      0.104343
    120 H5         16.2530   18.7830   33.9680 h1         6 MGO      0.068516
    121 O5         14.6260   17.5110   34.3330 os         6 MGO     -0.427383
    122 C6         15.1370   19.5610   35.5860 c3         6 MGO      0.141081
    123 H61        16.0240   20.1820   35.7270 h1         6 MGO      0.057384
    124 H62        15.1230   18.8070   36.3770 h1         6 MGO      0.057384
    125 O6         13.9740   20.3920   35.6980 oh         6 MGO     -0.593555
    126 HO6        14.2080   21.2760   35.3850 ho         6 MGO      0.422027
@<TRIPOS>BOND
    1    17    20 1
    2    14    16 1
    3    14    17 1
    4    12    14 1
    5    12   108 1
    6     8    10 1
    7     8    12 1
    8     4     6 1
    9     4     8 1
   10     3    33 1
   11     1     3 1
   12     1     4 1
   13     1    16 1
   14    38    41 1
   15    35    37 1
   16    35    38 1
   17    33    35 1
   18    29    31 1
   19    29    33 1
   20    25    27 1
   21    25    29 1
   22    24    54 1
   23    22    24 1
   24    22    25 1
   25    22    37 1
   26    59    62 1
   27    56    58 1
   28    56    59 1
   29    54    56 1
   30    50    52 1
   31    50    54 1
   32    46    48 1
   33    46    50 1
   34    45    75 1
   35    43    45 1
   36    43    46 1
   37    43    58 1
   38    80    83 1
   39    77    79 1
   40    77    80 1
   41    75    77 1
   42    71    73 1
   43    71    75 1
   44    67    69 1
   45    67    71 1
   46    66    96 1
   47    64    66 1
   48    64    67 1
   49    64    79 1
   50   101   104 1
   51    98   100 1
   52    98   101 1
   53    96    98 1
   54    92    94 1
   55    92    96 1
   56    88    90 1
   57    88    92 1
   58    87   117 1
   59    85    87 1
   60    85    88 1
   61    85   100 1
   62   122   125 1
   63   119   121 1
   64   119   122 1
   65   117   119 1
   66   113   115 1
   67   113   117 1
   68   109   111 1
   69   109   113 1
   70   106   108 1
   71   106   109 1
   72   106   121 1
   73    20    21 1
   74    17    18 1
   75    17    19 1
   76    14    15 1
   77    12    13 1
   78    10    11 1
   79     8     9 1
   80     6     7 1
   81     4     5 1
   82     1     2 1
   83    41    42 1
   84    38    39 1
   85    38    40 1
   86    35    36 1
   87    33    34 1
   88    31    32 1
   89    29    30 1
   90    27    28 1
   91    25    26 1
   92    22    23 1
   93    62    63 1
   94    59    60 1
   95    59    61 1
   96    56    57 1
   97    54    55 1
   98    52    53 1
   99    50    51 1
  100    48    49 1
  101    46    47 1
  102    43    44 1
  103    83    84 1
  104    80    81 1
  105    80    82 1
  106    77    78 1
  107    75    76 1
  108    73    74 1
  109    71    72 1
  110    69    70 1
  111    67    68 1
  112    64    65 1
  113   104   105 1
  114   101   102 1
  115   101   103 1
  116    98    99 1
  117    96    97 1
  118    94    95 1
  119    92    93 1
  120    90    91 1
  121    88    89 1
  122    85    86 1
  123   125   126 1
  124   122   123 1
  125   122   124 1
  126   119   120 1
  127   117   118 1
  128   115   116 1
  129   113   114 1
  130   111   112 1
  131   109   110 1
  132   106   107 1
@<TRIPOS>SUBSTRUCTURE
      1 MGO               1 ****               0 ****  **** 
      2 MGO              22 ****               0 ****  **** 
      3 MGO              43 ****               0 ****  **** 
      4 MGO              64 ****               0 ****  **** 
      5 MGO              85 ****               0 ****  **** 
      6 MGO             106 ****               0 ****  **** 
