@<TRIPOS>MOLECULE
Cpptraj
   25    24     1     0     0
SMALL
No Charge or Current Charge


@<TRIPOS>ATOM
      1 C1          19.3540    19.6880    39.7180 C.2        1 OCT       0.907358
      2 O1          19.4160    20.9070    39.7330 O.co2      1 OCT      -0.855028
      3 O2          19.3220    19.0650    40.7650 O.co2      1 OCT      -0.855028
      4 C2          19.3140    18.9090    38.4020 C.3        1 OCT      -0.193452
      5 H1          18.4020    18.3020    38.3690 H          1 OCT       0.018695
      6 H2          20.1600    18.2130    38.3690 H          1 OCT       0.018695
      7 C3          19.3600    19.8070    37.1450 C.3        1 OCT      -0.062417
      8 H3          18.5100    20.4940    37.1520 H          1 OCT       0.044688
      9 H4          20.2750    20.4050    37.1520 H          1 OCT       0.044688
     10 C4          19.3170    18.9620    35.8540 C.3        1 OCT      -0.079421
     11 H5          18.4030    18.3620    35.8400 H          1 OCT       0.024693
     12 H6          20.1650    18.2720    35.8400 H          1 OCT       0.024693
     13 C5          19.3620    19.8570    34.5970 C.3        1 OCT      -0.078421
     14 H7          18.5140    20.5460    34.6090 H          1 OCT       0.036690
     15 H8          20.2760    20.4560    34.6090 H          1 OCT       0.036690
     16 C6          19.3190    19.0110    33.3060 C.3        1 OCT      -0.078421
     17 H9          18.4060    18.4110    33.2940 H          1 OCT       0.033691
     18 H10         20.1670    18.3220    33.2940 H          1 OCT       0.033691
     19 C7          19.3650    19.9060    32.0500 C.3        1 OCT      -0.081422
     20 H11         18.5170    20.5950    32.0570 H          1 OCT       0.036690
     21 H12         20.2780    20.5060    32.0570 H          1 OCT       0.036690
     22 C8          19.3220    19.0650    30.7610 C.3        1 OCT      -0.090124
     23 H13         18.4040    18.4750    30.7160 H          1 OCT       0.025360
     24 H14         19.3550    19.7160    29.8840 H          1 OCT       0.025360
     25 H15         20.1760    18.3850    30.7160 H          1 OCT       0.025362
@<TRIPOS>BOND
     1    19    22 1   
     2    16    19 1   
     3    13    16 1   
     4    10    13 1   
     5     7    10 1   
     6     4     7 1   
     7     1     2 1   
     8     1     3 1   
     9     1     4 1   
    10    22    23 1   
    11    22    24 1   
    12    22    25 1   
    13    19    20 1   
    14    19    21 1   
    15    16    17 1   
    16    16    18 1   
    17    13    14 1   
    18    13    15 1   
    19    10    11 1   
    20    10    12 1   
    21     7     8 1   
    22     7     9 1   
    23     4     5 1   
    24     4     6 1   
@<TRIPOS>SUBSTRUCTURE
     1 OCT         1 TEMP              0 ****  ****    0 ROOT
