@<TRIPOS>MOLECULE
Cpptraj
   22    22     1     0     0
SMALL
No Charge or Current Charge


@<TRIPOS>ATOM
      1 C1          20.1990    20.2220    33.1630 C.3        1 M4C      -0.089059
      2 H2          20.2210    21.3070    33.0470 H          1 M4C       0.033716
      3 H3          21.0720    19.8430    32.6280 H          1 M4C       0.033716
      4 H4          19.3040    19.7870    32.7130 H          1 M4C       0.033716
      5 C2          20.1900    19.8490    34.7040 C.3        1 M4C      -0.065670
      6 H5          20.2170    18.7580    34.7350 H          1 M4C       0.043720
      7 C3          21.5040    20.2720    35.3640 C.3        1 M4C      -0.072366
      8 H6          22.2680    19.7570    34.7800 H          1 M4C       0.045971
      9 H7          21.6200    21.3580    35.3300 H          1 M4C       0.045971
     10 C4          21.4880    19.7690    36.9070 C.3        1 M4C      -0.090358
     11 H8          22.3530    20.2070    37.4100 H          1 M4C       0.045971
     12 H9          21.5510    18.6790    36.9380 H          1 M4C       0.045971
     13 C5          20.1990    20.2220    37.5870 C.3        1 M4C       0.142166
     14 H10         20.2470    19.9210    38.6360 H          1 M4C       0.027713
     15 C6          18.9050    19.8160    36.8660 C.3        1 M4C      -0.090358
     16 H11         18.0050    20.2230    37.3310 H          1 M4C       0.045971
     17 H12         18.7790    18.7480    36.6820 H          1 M4C       0.045971
     18 C7          18.9150    20.3530    35.4870 C.3        1 M4C      -0.072366
     19 H13         18.7880    21.4260    35.3330 H          1 M4C       0.045971
     20 H14         18.0370    19.9440    34.9820 H          1 M4C       0.045971
     21 O1          20.2630    21.6600    37.7770 O.3        1 M4C      -0.599522
     22 H1          19.4550    21.8900    38.2700 H          1 M4C       0.397184
@<TRIPOS>BOND
     1    15    18 1   
     2    13    15 1   
     3    13    21 1   
     4    10    13 1   
     5     7    10 1   
     6     5     7 1   
     7     5    18 1   
     8     1     5 1   
     9    21    22 1   
    10    18    19 1   
    11    18    20 1   
    12    15    16 1   
    13    15    17 1   
    14    13    14 1   
    15    10    11 1   
    16    10    12 1   
    17     7     8 1   
    18     7     9 1   
    19     5     6 1   
    20     1     2 1   
    21     1     3 1   
    22     1     4 1   
@<TRIPOS>SUBSTRUCTURE
     1 M4C         1 TEMP              0 ****  ****    0 ROOT
