@<TRIPOS>MOLECULE
Cpptraj
  147   154     1     0     0
SMALL
No Charge or Current Charge


@<TRIPOS>ATOM
      1 C1          14.2060    18.1820    34.3210 C.3        1 MGO       0.304529
      2 H1          13.5380    17.3200    34.5130 H          1 MGO       0.090782
      3 O1          15.5850    17.7480    34.0680 O.3        1 MGO      -0.453070
      4 C2          13.6880    18.9160    33.0870 C.3        1 MGO       0.092199
      5 H2          12.6420    19.1970    33.2380 H          1 MGO       0.102926
      6 O2          13.7980    18.0640    31.9340 O.3        1 MGO      -0.586639
      7 HO2         14.4140    17.3360    32.1170 H          1 MGO       0.425065
      8 C3          14.5210    20.1490    32.8070 C.3        1 MGO       0.093211
      9 H3          15.5410    19.8510    32.5470 H          1 MGO       0.064468
     10 O3          13.8940    20.8290    31.7080 O.3        1 MGO      -0.592567
     11 HO3         13.5780    20.1410    31.1080 H          1 MGO       0.421017
     12 C4          14.5370    21.0610    34.0250 C.3        1 MGO       0.127621
     13 H4          13.5280    21.4440    34.1950 H          1 MGO       0.080661
     14 C5          15.0200    20.3110    35.2760 C.3        1 MGO       0.104343
     15 H5          16.0440    19.9770    35.0910 H          1 MGO       0.068516
     16 O5          14.1740    19.1040    35.4720 O.3        1 MGO      -0.427383
     17 C6          15.0620    21.1100    36.5860 C.3        1 MGO       0.141081
     18 H61         16.0360    21.5960    36.6900 H          1 MGO       0.057384
     19 H62         14.9240    20.4420    37.4380 H          1 MGO       0.057384
     20 O6          14.0450    22.1200    36.5980 O.3        1 MGO      -0.593555
     21 HO6         14.4140    22.9260    36.2150 H          1 MGO       0.422027
     22 C1          17.8900    14.2980    34.6760 C.3        2 MGO       0.304529
     23 H1          18.1570    13.2450    34.8930 H          2 MGO       0.090782
     24 O1          19.0740    15.0910    34.3210 O.3        2 MGO      -0.453070
     25 C2          16.9220    14.3070    33.4960 C.3        2 MGO       0.092199
     26 H2          16.0600    13.6730    33.7230 H          2 MGO       0.102926
     27 O2          17.5860    13.8160    32.3210 O.3        2 MGO      -0.586639
     28 HO2         18.5490    13.8450    32.4450 H          2 MGO       0.425065
     29 C3          16.4650    15.7180    33.1890 C.3        2 MGO       0.093211
     30 H3          17.3180    16.3150    32.8530 H          2 MGO       0.064468
     31 O3          15.4790    15.6120    32.1500 O.3        2 MGO      -0.592567
     32 HO3         15.7820    14.9100    31.5560 H          2 MGO       0.421017
     33 C4          15.8360    16.3480    34.4200 C.3        2 MGO       0.127621
     34 H4          14.9180    15.8080    34.6670 H          2 MGO       0.080661
     35 C5          16.7950    16.3030    35.6200 C.3        2 MGO       0.104343
     36 H5          17.6810    16.8840    35.3590 H          2 MGO       0.068516
     37 O5          17.2200    14.8960    35.8480 O.3        2 MGO      -0.427383
     38 C6          16.2750    16.8860    36.9420 C.3        2 MGO       0.141081
     39 H61         16.5100    17.9520    36.9920 H          2 MGO       0.057384
     40 H62         16.7610    16.3930    37.7870 H          2 MGO       0.057384
     41 O6          14.8540    16.7260    37.0450 O.3        2 MGO      -0.593555
     42 HO6         14.4340    17.5030    36.6550 H          2 MGO       0.422027
     43 C1          23.2370    14.7500    34.6990 C.3        3 MGO       0.304529
     44 H1          24.2370    14.3100    34.8750 H          3 MGO       0.090782
     45 O1          23.3350    16.1560    34.2830 O.3        3 MGO      -0.453070
     46 C2          22.5560    13.9570    33.5860 C.3        3 MGO       0.092199
     47 H2          22.5260    12.8980    33.8570 H          3 MGO       0.102926
     48 O2          23.2850    14.1210    32.3590 O.3        3 MGO      -0.586639
     49 HO2         23.8690    14.8950    32.4190 H          3 MGO       0.425065
     50 C3          21.1540    14.4720    33.3410 C.3        3 MGO       0.093211
     51 H3          21.2000    15.4970    32.9630 H          3 MGO       0.064468
     52 O3          20.5600    13.5970    32.3690 O.3        3 MGO      -0.592567
     53 HO3         21.2620    13.3720    31.7410 H          3 MGO       0.421017
     54 C4          20.3430    14.4230    34.6270 C.3        3 MGO       0.127621
     55 H4          20.2060    13.3790    34.9210 H          3 MGO       0.080661
     56 C5          21.0460    15.1890    35.7570 C.3        3 MGO       0.104343
     57 H5          21.1310    16.2340    35.4510 H          3 MGO       0.068516
     58 O5          22.4220    14.6480    35.9250 O.3        3 MGO      -0.427383
     59 C6          20.3450    15.2010    37.1230 C.3        3 MGO       0.141081
     60 H61         19.6630    16.0520    37.1800 H          3 MGO       0.057384
     61 H62         21.0830    15.3030    37.9240 H          3 MGO       0.057384
     62 O6          19.5900    13.9970    37.3190 O.3        3 MGO      -0.593555
     63 HO6         18.6990    14.1420    36.9750 H          3 MGO       0.422027
     64 C1          26.2180    19.2000    34.3730 C.3        4 MGO       0.304529
     65 H1          27.1970    19.7090    34.4710 H          4 MGO       0.090782
     66 O1          25.1590    20.1400    33.9810 O.3        4 MGO      -0.453070
     67 C2          26.3480    18.1300    33.2930 C.3        4 MGO       0.092199
     68 H2          27.1700    17.4550    33.5420 H          4 MGO       0.102926
     69 O2          26.6020    18.7530    32.0220 O.3        4 MGO      -0.586639
     70 HO2         26.3670    19.6940    32.0590 H          4 MGO       0.425065
     71 C3          25.0580    17.3500    33.1530 C.3        4 MGO       0.093211
     72 H3          24.2650    18.0130    32.7930 H          4 MGO       0.064468
     73 O3          25.3120    16.3020    32.2040 O.3        4 MGO      -0.592567
     74 HO3         25.8890    16.6820    31.5270 H          4 MGO       0.421017
     75 C4          24.6650    16.7380    34.4870 C.3        4 MGO       0.127621
     76 H4          25.4110    15.9910    34.7690 H          4 MGO       0.080661
     77 C5          24.5730    17.8090    35.5840 C.3        4 MGO       0.104343
     78 H5          23.7930    18.5180    35.2950 H          4 MGO       0.068516
     79 O5          25.8620    18.5490    35.6480 O.3        4 MGO      -0.427383
     80 C6          24.2070    17.3230    36.9950 C.3        4 MGO       0.141081
     81 H61         23.1210    17.3280    37.1150 H          4 MGO       0.057384
     82 H62         24.6340    17.9950    37.7450 H          4 MGO       0.057384
     83 O6          24.6850    15.9910    37.2140 O.3        4 MGO      -0.593555
     84 HO6         23.9980    15.3730    36.9330 H          4 MGO       0.422027
     85 C1          24.5900    24.2950    33.9420 C.3        5 MGO       0.304529
     86 H1          24.8100    25.3790    33.9870 H          5 MGO       0.090782
     87 O1          23.1740    24.0430    33.6430 O.3        5 MGO      -0.453070
     88 C2          25.4420    23.6840    32.8320 C.3        5 MGO       0.092199
     89 H2          26.4960    23.9110    33.0120 H          5 MGO       0.102926
     90 O2          25.0420    24.2220    31.5620 O.3        5 MGO      -0.586639
     91 HO2         24.1630    24.6290    31.6350 H          5 MGO       0.425065
     92 C3          25.2370    22.1850    32.7630 C.3        5 MGO       0.093211
     93 H3          24.2050    21.9680    32.4730 H          5 MGO       0.064468
     94 O3          26.1580    21.6900    31.7770 O.3        5 MGO      -0.592567
     95 HO3         26.1800    22.3500    31.0700 H          5 MGO       0.421017
     96 C4          25.5480    21.5490    34.1080 C.3        5 MGO       0.127621
     97 H4          26.6130    21.6710    34.3240 H          5 MGO       0.080661
     98 C5          24.7190    22.1890    35.2320 C.3        5 MGO       0.104343
     99 H5          23.6640    22.0150    35.0110 H          5 MGO       0.068516
    100 O5          24.9510    23.6600    35.2250 O.3        5 MGO      -0.427383
    101 C6          24.9520    21.6560    36.6530 C.3        5 MGO       0.141081
    102 H61         24.2790    20.8180    36.8460 H          5 MGO       0.057384
    103 H62         24.7400    22.4360    37.3870 H          5 MGO       0.057384
    104 O6          26.3030    21.2020    36.8110 O.3        5 MGO      -0.593555
    105 HO6         26.3380    20.2690    36.5640 H          5 MGO       0.422027
    106 C1          19.5780    26.1990    33.7310 C.3        6 MGO       0.304529
    107 H1          18.8720    27.0500    33.7820 H          6 MGO       0.090782
    108 O1          18.8740    24.9270    33.5220 O.3        6 MGO      -0.453070
    109 C2          20.5200    26.4360    32.5530 C.3        6 MGO       0.092199
    110 H2          21.0120    27.4060    32.6660 H          6 MGO       0.102926
    111 O2          19.7760    26.4100    31.3250 O.3        6 MGO      -0.586639
    112 HO2         18.9150    25.9840    31.4650 H          6 MGO       0.425065
    113 C3          21.5570    25.3350    32.4650 C.3        6 MGO       0.093211
    114 H3          21.0650    24.3840    32.2410 H          6 MGO       0.064468
    115 O3          22.4590    25.7030    31.4090 O.3        6 MGO      -0.592567
    116 HO3         21.9160    26.1070    30.7170 H          6 MGO       0.421017
    117 C4          22.3260    25.2320    33.7740 C.3        6 MGO       0.127621
    118 H4          22.9060    26.1460    33.9180 H          6 MGO       0.080661
    119 C5          21.3750    25.0320    34.9630 C.3        6 MGO       0.104343
    120 H5          20.8420    24.0930    34.8120 H          6 MGO       0.068516
    121 O5          20.3730    26.1330    34.9720 O.3        6 MGO      -0.427383
    122 C6          22.0200    24.9370    36.3540 C.3        6 MGO       0.141081
    123 H61         22.2660    23.8950    36.5730 H          6 MGO       0.057384
    124 H62         21.3220    25.2890    37.1170 H          6 MGO       0.057384
    125 O6          23.2260    25.7110    36.4110 O.3        6 MGO      -0.593555
    126 HO6         23.9610    25.1440    36.1430 H          6 MGO       0.422027
    127 C1          14.9560    23.4780    33.9000 C.3        7 MGO       0.304529
    128 H1          13.8550    23.4620    34.0170 H          7 MGO       0.090782
    129 O1          15.4970    22.1250    33.7110 O.3        7 MGO      -0.453070
    130 C2          15.2890    24.3140    32.6670 C.3        7 MGO       0.092199
    131 H2          14.8450    25.3090    32.7670 H          7 MGO       0.102926
    132 O2          14.7730    23.6700    31.4910 O.3        7 MGO      -0.586639
    133 HO2         14.5770    22.7380    31.6800 H          7 MGO       0.425065
    134 C3          16.7880    24.4300    32.4850 C.3        7 MGO       0.093211
    135 H3          17.2100    23.4420    32.2740 H          7 MGO       0.064468
    136 O3          17.0010    25.3200    31.3780 O.3        7 MGO      -0.592567
    137 HO3         16.3070    25.1230    30.7340 H          7 MGO       0.421017
    138 C4          17.4260    25.0150    33.7350 C.3        7 MGO       0.127621
    139 H4          17.0830    26.0450    33.8610 H          7 MGO       0.080661
    140 C5          17.0590    24.1960    34.9840 C.3        7 MGO       0.104343
    141 H5          17.4500    23.1860    34.8460 H          7 MGO       0.068516
    142 O5          15.5780    24.1050    35.0820 O.3        7 MGO      -0.427383
    143 C6          17.6190    24.6930    36.3240 C.3        7 MGO       0.141081
    144 H61         18.5960    24.2400    36.5050 H          7 MGO       0.057384
    145 H62         16.9530    24.4000    37.1400 H          7 MGO       0.057384
    146 O6          17.7690    26.1190    36.3160 O.3        7 MGO      -0.593555
    147 HO6         18.6530    26.3260    35.9860 H          7 MGO       0.422027
@<TRIPOS>BOND
     1    17    20 1   
     2    14    16 1   
     3    14    17 1   
     4    12    14 1   
     5    12   129 1   
     6     8    10 1   
     7     8    12 1   
     8     4     6 1   
     9     4     8 1   
    10     3    33 1   
    11     1     3 1   
    12     1     4 1   
    13     1    16 1   
    14    38    41 1   
    15    35    37 1   
    16    35    38 1   
    17    33    35 1   
    18    29    31 1   
    19    29    33 1   
    20    25    27 1   
    21    25    29 1   
    22    24    54 1   
    23    22    24 1   
    24    22    25 1   
    25    22    37 1   
    26    59    62 1   
    27    56    58 1   
    28    56    59 1   
    29    54    56 1   
    30    50    52 1   
    31    50    54 1   
    32    46    48 1   
    33    46    50 1   
    34    45    75 1   
    35    43    45 1   
    36    43    46 1   
    37    43    58 1   
    38    80    83 1   
    39    77    79 1   
    40    77    80 1   
    41    75    77 1   
    42    71    73 1   
    43    71    75 1   
    44    67    69 1   
    45    67    71 1   
    46    66    96 1   
    47    64    66 1   
    48    64    67 1   
    49    64    79 1   
    50   101   104 1   
    51    98   100 1   
    52    98   101 1   
    53    96    98 1   
    54    92    94 1   
    55    92    96 1   
    56    88    90 1   
    57    88    92 1   
    58    87   117 1   
    59    85    87 1   
    60    85    88 1   
    61    85   100 1   
    62   122   125 1   
    63   119   121 1   
    64   119   122 1   
    65   117   119 1   
    66   113   115 1   
    67   113   117 1   
    68   109   111 1   
    69   109   113 1   
    70   108   138 1   
    71   106   108 1   
    72   106   109 1   
    73   106   121 1   
    74   143   146 1   
    75   140   142 1   
    76   140   143 1   
    77   138   140 1   
    78   134   136 1   
    79   134   138 1   
    80   130   132 1   
    81   130   134 1   
    82   127   129 1   
    83   127   130 1   
    84   127   142 1   
    85    20    21 1   
    86    17    18 1   
    87    17    19 1   
    88    14    15 1   
    89    12    13 1   
    90    10    11 1   
    91     8     9 1   
    92     6     7 1   
    93     4     5 1   
    94     1     2 1   
    95    41    42 1   
    96    38    39 1   
    97    38    40 1   
    98    35    36 1   
    99    33    34 1   
   100    31    32 1   
   101    29    30 1   
   102    27    28 1   
   103    25    26 1   
   104    22    23 1   
   105    62    63 1   
   106    59    60 1   
   107    59    61 1   
   108    56    57 1   
   109    54    55 1   
   110    52    53 1   
   111    50    51 1   
   112    48    49 1   
   113    46    47 1   
   114    43    44 1   
   115    83    84 1   
   116    80    81 1   
   117    80    82 1   
   118    77    78 1   
   119    75    76 1   
   120    73    74 1   
   121    71    72 1   
   122    69    70 1   
   123    67    68 1   
   124    64    65 1   
   125   104   105 1   
   126   101   102 1   
   127   101   103 1   
   128    98    99 1   
   129    96    97 1   
   130    94    95 1   
   131    92    93 1   
   132    90    91 1   
   133    88    89 1   
   134    85    86 1   
   135   125   126 1   
   136   122   123 1   
   137   122   124 1   
   138   119   120 1   
   139   117   118 1   
   140   115   116 1   
   141   113   114 1   
   142   111   112 1   
   143   109   110 1   
   144   106   107 1   
   145   146   147 1   
   146   143   144 1   
   147   143   145 1   
   148   140   141 1   
   149   138   139 1   
   150   136   137 1   
   151   134   135 1   
   152   132   133 1   
   153   130   131 1   
   154   127   128 1   
@<TRIPOS>SUBSTRUCTURE
     1 MGO         1 TEMP              0 ****  ****    0 ROOT
