@<TRIPOS>MOLECULE
Cpptraj generated mol2 file.
   25    25     1     0     0
SMALL
USER_CHARGES


@<TRIPOS>ATOM
      1 C1         20.2570   19.9200   32.7620 c3         1 COC     -0.075433
      2 H2         19.4930   19.5020   33.4190 hc         1 COC      0.040182
      3 H3         19.8990   19.7220   31.7490 hc         1 COC      0.040182
      4 C2         21.5940   19.1590   32.9260 c3         1 COC     -0.071931
      5 H4         21.4050   18.1120   32.6730 hc         1 COC      0.036184
      6 H5         22.3130   19.5280   32.1890 hc         1 COC      0.036184
      7 C3         22.2550   19.1930   34.3260 c3         1 COC     -0.071431
      8 H6         22.8370   20.1050   34.4570 hc         1 COC      0.038183
      9 H7         22.9890   18.3840   34.3500 hc         1 COC      0.038183
     10 C4         21.2820   18.9880   35.5160 c3         1 COC     -0.089939
     11 H8         20.3810   18.4580   35.2040 hc         1 COC      0.049928
     12 H9         21.7840   18.3270   36.2260 hc         1 COC      0.049928
     13 C5         20.9250   20.2930   36.2780 c3         1 COC      0.145037
     14 H10        21.8560   20.8020   36.5480 h1         1 COC      0.028688
     15 C6         20.0160   21.2940   35.5130 c3         1 COC     -0.089939
     16 H11        19.0870   20.8170   35.2000 hc         1 COC      0.049928
     17 H12        19.7260   22.0770   36.2180 hc         1 COC      0.049928
     18 C7         20.7150   22.0000   34.3220 c3         1 COC     -0.071431
     19 H13        21.7960   22.0010   34.4540 hc         1 COC      0.038183
     20 H14        20.4270   23.0540   34.3410 hc         1 COC      0.038183
     21 C8         20.3320   21.4580   32.9220 c3         1 COC     -0.071931
     22 H15        21.0290   21.8630   32.1850 hc         1 COC      0.036184
     23 H16        19.3480   21.8580   32.6680 hc         1 COC      0.036184
     24 O1         20.2570   19.9200   37.4930 oh         1 COC     -0.606064
     25 H1         20.1840   20.7390   38.0650 ho         1 COC      0.396830
@<TRIPOS>BOND
    1    18    21 1
    2    15    18 1
    3    13    15 1
    4    13    24 1
    5    10    13 1
    6     7    10 1
    7     4     7 1
    8     1     4 1
    9     1    21 1
   10    24    25 1
   11    21    22 1
   12    21    23 1
   13    18    19 1
   14    18    20 1
   15    15    16 1
   16    15    17 1
   17    13    14 1
   18    10    11 1
   19    10    12 1
   20     7     8 1
   21     7     9 1
   22     4     5 1
   23     4     6 1
   24     1     2 1
   25     1     3 1
@<TRIPOS>SUBSTRUCTURE
      1 COC               1 ****               0 ****  **** 
