@<TRIPOS>MOLECULE
Cpptraj
  147   154     1     0     0
SMALL
No Charge or Current Charge


@<TRIPOS>ATOM
      1 C1          15.5800    16.0080    33.5430 C.3        1 MGO       0.304529
      2 H1          14.4860    15.8860    33.4130 H          1 MGO       0.090782
      3 O1          15.9310    17.4010    33.8450 O.3        1 MGO      -0.453070
      4 C2          16.0210    15.1260    34.7070 C.3        1 MGO       0.092199
      5 H2          15.7150    14.0930    34.5220 H          1 MGO       0.102926
      6 O2          15.4220    15.5960    35.9260 O.3        1 MGO      -0.586639
      7 HO2         15.1020    16.5060    35.8110 H          1 MGO       0.425065
      8 C3          17.5220    15.1980    34.8960 C.3        1 MGO       0.093211
      9 H3          17.8060    16.2120    35.1910 H          1 MGO       0.064468
     10 O3          17.8520    14.2560    35.9290 O.3        1 MGO      -0.592567
     11 HO3         17.1380    14.3050    36.5790 H          1 MGO       0.421017
     12 C4          18.2320    14.8070    33.6090 C.3        1 MGO       0.127621
     13 H4          18.0320    13.7540    33.3970 H          1 MGO       0.080661
     14 C5          17.7600    15.6690    32.4280 C.3        1 MGO       0.104343
     15 H5          18.0110    16.7080    32.6500 H          1 MGO       0.068516
     16 O5          16.2790    15.5680    32.3200 O.3        1 MGO      -0.427383
     17 C6          18.3810    15.3630    31.0580 C.3        1 MGO       0.141081
     18 H61         19.2890    15.9560    30.9270 H          1 MGO       0.057384
     19 H62         17.6830    15.6300    30.2610 H          1 MGO       0.057384
     20 O6          18.7230    13.9750    30.9530 O.3        1 MGO      -0.593555
     21 HO6         19.6270    13.8610    31.2740 H          1 MGO       0.422027
     22 C1          14.1230    21.1720    33.5430 C.3        2 MGO       0.304529
     23 H1          13.3450    21.9510    33.4150 H          2 MGO       0.090782
     24 O1          15.4320    21.7650    33.8460 O.3        2 MGO      -0.453070
     25 C2          13.7090    20.2770    34.7080 C.3        2 MGO       0.092199
     26 H2          12.7100    19.8720    34.5230 H          2 MGO       0.102926
     27 O2          13.7030    21.0370    35.9260 O.3        2 MGO      -0.586639
     28 HO2         14.2160    21.8550    35.8110 H          2 MGO       0.425065
     29 C3          14.7020    19.1480    34.8950 C.3        2 MGO       0.093211
     30 H3          15.6720    19.5570    35.1910 H          2 MGO       0.064468
     31 O3          14.1710    18.3020    35.9280 O.3        2 MGO      -0.592567
     32 HO3         13.7630    18.8920    36.5800 H          2 MGO       0.421017
     33 C4          14.8390    18.3500    33.6100 C.3        2 MGO       0.127621
     34 H4          13.8900    17.8490    33.3980 H          2 MGO       0.080661
     35 C5          15.2170    19.2560    32.4280 C.3        2 MGO       0.104343
     36 H5          16.1860    19.7080    32.6510 H          2 MGO       0.068516
     37 O5          14.2160    20.3520    32.3200 O.3        2 MGO      -0.427383
     38 C6          15.3660    18.5800    31.0580 C.3        2 MGO       0.141081
     39 H61         16.3950    18.2400    30.9250 H          2 MGO       0.057384
     40 H62         15.1390    19.2920    30.2600 H          2 MGO       0.057384
     41 O6          14.4930    17.4470    30.9520 O.3        2 MGO      -0.593555
     42 HO6         14.9670    16.6700    31.2740 H          2 MGO       0.422027
     43 C1          17.2530    25.5310    33.5440 C.3        3 MGO       0.304529
     44 H1          17.3760    26.6240    33.4150 H          3 MGO       0.090782
     45 O1          18.5330    24.8760    33.8460 O.3        3 MGO      -0.453070
     46 C2          16.2960    25.2960    34.7090 C.3        3 MGO       0.092199
     47 H2          15.3560    25.8240    34.5240 H          3 MGO       0.102926
     48 O2          16.8870    25.7740    35.9270 O.3        3 MGO      -0.586639
     49 HO2         17.8450    25.8840    35.8110 H          3 MGO       0.425065
     50 C3          16.0310    23.8160    34.8960 C.3        3 MGO       0.093211
     51 H3          16.9570    23.3120    35.1910 H          3 MGO       0.064468
     52 O3          15.0400    23.7030    35.9300 O.3        3 MGO      -0.592567
     53 HO3         15.2470    24.3890    36.5810 H          3 MGO       0.421017
     54 C4          15.4920    23.2110    33.6100 C.3        3 MGO       0.127621
     55 H4          14.5100    23.6420    33.3990 H          3 MGO       0.080661
     56 C5          16.4360    23.4810    32.4290 C.3        3 MGO       0.104343
     57 H5          17.3940    23.0050    32.6520 H          3 MGO       0.068516
     58 O5          16.6690    24.9460    32.3210 O.3        3 MGO      -0.427383
     59 C6          16.0000    22.9430    31.0590 C.3        3 MGO       0.141081
     60 H61         16.3750    21.9260    30.9260 H          3 MGO       0.057384
     61 H62         16.4150    23.5650    30.2610 H          3 MGO       0.057384
     62 O6          14.5690    22.9200    30.9530 O.3        3 MGO      -0.593555
     63 HO6         14.2590    22.0630    31.2750 H          3 MGO       0.422027
     64 C1          22.6120    25.8000    33.5420 C.3        4 MGO       0.304529
     65 H1          23.5430    26.3860    33.4140 H          4 MGO       0.090782
     66 O1          22.8970    24.3920    33.8450 O.3        4 MGO      -0.453070
     67 C2          21.8310    26.4030    34.7070 C.3        4 MGO       0.092199
     68 H2          21.6590    27.4670    34.5220 H          4 MGO       0.102926
     69 O2          22.5750    26.2390    35.9270 O.3        4 MGO      -0.586639
     70 HO2         23.2580    25.5590    35.8100 H          4 MGO       0.425065
     71 C3          20.5110    25.6870    34.8950 C.3        4 MGO       0.093211
     72 H3          20.6940    24.6500    35.1910 H          4 MGO       0.064468
     73 O3          19.8040    26.3930    35.9290 O.3        4 MGO      -0.592567
     74 HO3         20.4690    26.6590    36.5790 H          4 MGO       0.421017
     75 C4          19.6990    25.7310    33.6110 C.3        4 MGO       0.127621
     76 H4          19.4240    26.7670    33.3980 H          4 MGO       0.080661
     77 C5          20.5000    25.1610    32.4280 C.3        4 MGO       0.104343
     78 H5          20.7240    24.1150    32.6510 H          4 MGO       0.068516
     79 O5          21.7900    25.8930    32.3210 O.3        4 MGO      -0.427383
     80 C6          19.8070    25.1670    31.0590 C.3        4 MGO       0.141081
     81 H61         19.2460    24.2380    30.9260 H          4 MGO       0.057384
     82 H62         20.5520    25.2280    30.2610 H          4 MGO       0.057384
     83 O6          18.8970    26.2690    30.9530 O.3        4 MGO      -0.593555
     84 HO6         18.0330    25.9800    31.2750 H          4 MGO       0.422027
     85 C1          26.1640    21.7790    33.5420 C.3        5 MGO       0.304529
     86 H1          27.2020    21.4160    33.4130 H          5 MGO       0.090782
     87 O1          25.2410    20.6780    33.8460 O.3        5 MGO      -0.453070
     88 C2          26.1490    22.7650    34.7060 C.3        5 MGO       0.092199
     89 H2          26.8730    23.5640    34.5210 H          5 MGO       0.102926
     90 O2          26.4840    22.0830    35.9250 O.3        5 MGO      -0.586639
     91 HO2         26.3780    21.1250    35.8110 H          5 MGO       0.425065
     92 C3          24.7640    23.3520    34.8940 C.3        5 MGO       0.093211
     93 H3          24.0690    22.5620    35.1900 H          5 MGO       0.064468
     94 O3          24.8760    24.3450    35.9280 O.3        5 MGO      -0.592567
     95 HO3         25.4990    23.9900    36.5780 H          5 MGO       0.421017
     96 C4          24.2950    24.0130    33.6100 C.3        5 MGO       0.127621
     97 H4          24.9320    24.8740    33.3960 H          5 MGO       0.080661
     98 C5          24.3460    23.0310    32.4280 C.3        5 MGO       0.104343
     99 H5          23.6700    22.2040    32.6510 H          5 MGO       0.068516
    100 O5          25.7240    22.4790    32.3190 O.3        5 MGO      -0.427383
    101 C6          23.9190    23.5760    31.0570 C.3        5 MGO       0.141081
    102 H61         22.8430    23.4370    30.9250 H          5 MGO       0.057384
    103 H62         24.4310    23.0330    30.2610 H          5 MGO       0.057384
    104 O6          24.2140    24.9750    30.9510 O.3        5 MGO      -0.593555
    105 HO6         23.4490    25.4700    31.2740 H          5 MGO       0.422027
    106 C1          25.2350    16.4960    33.5430 C.3        6 MGO       0.304529
    107 H1          25.5990    15.4570    33.4150 H          6 MGO       0.090782
    108 O1          23.7980    16.5290    33.8460 O.3        6 MGO      -0.453070
    109 C2          25.9970    17.1230    34.7070 C.3        6 MGO       0.092199
    110 H2          27.0720    17.0540    34.5230 H          6 MGO       0.102926
    111 O2          25.6720    16.4340    35.9270 O.3        6 MGO      -0.586639
    112 HO2         24.8560    15.9200    35.8110 H          6 MGO       0.425065
    113 C3          25.5920    18.5700    34.8960 C.3        6 MGO       0.093211
    114 H3          24.5410    18.6210    35.1910 H          6 MGO       0.064468
    115 O3          26.4370    19.1020    35.9290 O.3        6 MGO      -0.592567
    116 HO3         26.5480    18.3940    36.5800 H          6 MGO       0.421017
    117 C4          25.8160    19.3490    33.6100 C.3        6 MGO       0.127621
    118 H4          26.8860    19.3880    33.3970 H          6 MGO       0.080661
    119 C5          25.0810    18.6960    32.4290 C.3        6 MGO       0.104343
    120 H5          24.0130    18.7100    32.6510 H          6 MGO       0.068516
    121 O5          25.5080    17.2740    32.3200 O.3        6 MGO      -0.427383
    122 C6          25.2410    19.3690    31.0580 C.3        6 MGO       0.141081
    123 H61         24.4610    20.1230    30.9250 H          6 MGO       0.057384
    124 H62         25.1370    18.6290    30.2610 H          6 MGO       0.057384
    125 O6          26.5190    20.0110    30.9530 O.3        6 MGO      -0.593555
    126 HO6         26.4280    20.9180    31.2730 H          6 MGO       0.422027
    127 C1          20.5240    13.9260    33.5430 C.3        7 MGO       0.304529
    128 H1          19.9380    12.9960    33.4150 H          7 MGO       0.090782
    129 O1          19.6560    15.0710    33.8450 O.3        7 MGO      -0.453070
    130 C2          21.4890    13.7220    34.7090 C.3        7 MGO       0.092199
    131 H2          22.1060    12.8380    34.5240 H          7 MGO       0.102926
    132 O2          20.7490    13.5480    35.9260 O.3        7 MGO      -0.586639
    133 HO2         19.8380    13.8650    35.8110 H          7 MGO       0.425065
    134 C3          22.3690    14.9410    34.8970 C.3        7 MGO       0.093211
    135 H3          21.7530    15.7960    35.1910 H          7 MGO       0.064468
    136 O3          23.3120    14.6120    35.9300 O.3        7 MGO      -0.592567
    137 HO3         22.8270    14.0850    36.5800 H          7 MGO       0.421017
    138 C4          23.1180    15.2530    33.6100 C.3        7 MGO       0.127621
    139 H4          23.8150    14.4390    33.3990 H          7 MGO       0.080661
    140 C5          22.1490    15.4190    32.4280 C.3        7 MGO       0.104343
    141 H5          21.4930    16.2640    32.6520 H          7 MGO       0.068516
    142 O5          21.3050    14.2000    32.3210 O.3        7 MGO      -0.427383
    143 C6          22.7770    15.7140    31.0580 C.3        7 MGO       0.141081
    144 H61         22.8800    16.7940    30.9250 H          7 MGO       0.057384
    145 H62         22.1320    15.3350    30.2620 H          7 MGO       0.057384
    146 O6          24.0750    15.1150    30.9530 O.3        7 MGO      -0.593555
    147 HO6         24.7270    15.7510    31.2750 H          7 MGO       0.422027
@<TRIPOS>BOND
     1    17    20 1   
     2    14    16 1   
     3    14    17 1   
     4    12    14 1   
     5    12   129 1   
     6     8    10 1   
     7     8    12 1   
     8     4     6 1   
     9     4     8 1   
    10     3    33 1   
    11     1     3 1   
    12     1     4 1   
    13     1    16 1   
    14    38    41 1   
    15    35    37 1   
    16    35    38 1   
    17    33    35 1   
    18    29    31 1   
    19    29    33 1   
    20    25    27 1   
    21    25    29 1   
    22    24    54 1   
    23    22    24 1   
    24    22    25 1   
    25    22    37 1   
    26    59    62 1   
    27    56    58 1   
    28    56    59 1   
    29    54    56 1   
    30    50    52 1   
    31    50    54 1   
    32    46    48 1   
    33    46    50 1   
    34    45    75 1   
    35    43    45 1   
    36    43    46 1   
    37    43    58 1   
    38    80    83 1   
    39    77    79 1   
    40    77    80 1   
    41    75    77 1   
    42    71    73 1   
    43    71    75 1   
    44    67    69 1   
    45    67    71 1   
    46    66    96 1   
    47    64    66 1   
    48    64    67 1   
    49    64    79 1   
    50   101   104 1   
    51    98   100 1   
    52    98   101 1   
    53    96    98 1   
    54    92    94 1   
    55    92    96 1   
    56    88    90 1   
    57    88    92 1   
    58    87   117 1   
    59    85    87 1   
    60    85    88 1   
    61    85   100 1   
    62   122   125 1   
    63   119   121 1   
    64   119   122 1   
    65   117   119 1   
    66   113   115 1   
    67   113   117 1   
    68   109   111 1   
    69   109   113 1   
    70   108   138 1   
    71   106   108 1   
    72   106   109 1   
    73   106   121 1   
    74   143   146 1   
    75   140   142 1   
    76   140   143 1   
    77   138   140 1   
    78   134   136 1   
    79   134   138 1   
    80   130   132 1   
    81   130   134 1   
    82   127   129 1   
    83   127   130 1   
    84   127   142 1   
    85    20    21 1   
    86    17    18 1   
    87    17    19 1   
    88    14    15 1   
    89    12    13 1   
    90    10    11 1   
    91     8     9 1   
    92     6     7 1   
    93     4     5 1   
    94     1     2 1   
    95    41    42 1   
    96    38    39 1   
    97    38    40 1   
    98    35    36 1   
    99    33    34 1   
   100    31    32 1   
   101    29    30 1   
   102    27    28 1   
   103    25    26 1   
   104    22    23 1   
   105    62    63 1   
   106    59    60 1   
   107    59    61 1   
   108    56    57 1   
   109    54    55 1   
   110    52    53 1   
   111    50    51 1   
   112    48    49 1   
   113    46    47 1   
   114    43    44 1   
   115    83    84 1   
   116    80    81 1   
   117    80    82 1   
   118    77    78 1   
   119    75    76 1   
   120    73    74 1   
   121    71    72 1   
   122    69    70 1   
   123    67    68 1   
   124    64    65 1   
   125   104   105 1   
   126   101   102 1   
   127   101   103 1   
   128    98    99 1   
   129    96    97 1   
   130    94    95 1   
   131    92    93 1   
   132    90    91 1   
   133    88    89 1   
   134    85    86 1   
   135   125   126 1   
   136   122   123 1   
   137   122   124 1   
   138   119   120 1   
   139   117   118 1   
   140   115   116 1   
   141   113   114 1   
   142   111   112 1   
   143   109   110 1   
   144   106   107 1   
   145   146   147 1   
   146   143   144 1   
   147   143   145 1   
   148   140   141 1   
   149   138   139 1   
   150   136   137 1   
   151   134   135 1   
   152   132   133 1   
   153   130   131 1   
   154   127   128 1   
@<TRIPOS>SUBSTRUCTURE
     1 MGO         1 TEMP              0 ****  ****    0 ROOT
