@<TRIPOS>MOLECULE
CHP
   22    22     1     0     0
SMALL
bcc


@<TRIPOS>ATOM
      1 C1          0.0000    0.0000    0.0000 c3        1 CHP     -0.075900
      2 H2          0.3370   -0.6730   -0.7920 hc        1 CHP      0.037950
      3 H3         -0.8760    0.5220   -0.3910 hc        1 CHP      0.037950
      4 C2          1.1210    1.0320    0.2600 c3        1 CHP     -0.075900
      5 H4          2.0950    0.5470    0.1630 hc        1 CHP      0.037950
      6 H5          1.0750    1.7800   -0.5350 hc        1 CHP      0.037950
      7 C3          1.0330    1.7510    1.6250 c3        1 CHP     -0.072400
      8 H6         -0.0060    1.9430    1.9020 hc        1 CHP      0.038450
      9 H7          1.5110    2.7280    1.5170 hc        1 CHP      0.038450
     10 C4          1.7860    0.9880    2.7410 c3        1 CHP     -0.107400
     11 H8          2.7940    0.7540    2.3930 hc        1 CHP      0.049700
     12 H9          1.9150    1.6620    3.5930 hc        1 CHP      0.049700
     13 C5          1.1180   -0.3150    3.2430 c3        1 CHP      0.142100
     14 H10         1.8620   -0.8240    3.8670 h1        1 CHP      0.066700
     15 C6          0.7060   -1.3190    2.1340 c3        1 CHP     -0.107400
     16 H11         1.5760   -1.5880    1.5310 hc        1 CHP      0.049700
     17 H12         0.3820   -2.2370    2.6280 hc        1 CHP      0.049700
     18 C7         -0.4480   -0.8400    1.2170 c3        1 CHP     -0.072400
     19 H13        -0.9690   -1.7210    0.8330 hc        1 CHP      0.038450
     20 H14        -1.1900   -0.2830    1.7920 hc        1 CHP      0.038450
     21 O1          0.0000    0.0000    4.0910 oh        1 CHP     -0.598800
     22 H1         -0.6430    0.5470    3.5610 ho        1 CHP      0.397000
@<TRIPOS>BOND
     1    1    2 1   
     2    1    3 1   
     3    1    4 1   
     4    1   18 1   
     5    4    5 1   
     6    4    6 1   
     7    4    7 1   
     8    7    8 1   
     9    7    9 1   
    10    7   10 1   
    11   10   11 1   
    12   10   12 1   
    13   10   13 1   
    14   13   14 1   
    15   13   15 1   
    16   13   21 1   
    17   15   16 1   
    18   15   17 1   
    19   15   18 1   
    20   18   19 1   
    21   18   20 1   
    22   21   22 1   
@<TRIPOS>SUBSTRUCTURE
     1 CHP         1 TEMP              0 ****  ****    0 ROOT
