@<TRIPOS>MOLECULE
PB3
   23    23     1     0     0
SMALL
bcc


@<TRIPOS>ATOM
      1 C1          1.3980    0.3470    4.8970 c3        1 PB3     -0.076083
      2 H1          1.7570    1.2860    4.4700 hc        1 PB3      0.028706
      3 H2          1.3620    0.4650    5.9820 hc        1 PB3      0.028706
      4 H3          2.1230   -0.4360    4.6620 hc        1 PB3      0.028706
      5 C2         -0.0000    0.0000    4.3310 c3        1 PB3     -0.027394
      6 H4         -0.6850    0.7850    4.6620 hc        1 PB3      0.083719
      7 C3         -0.5310   -1.3440    4.8900 c3        1 PB3     -0.190357
      8 H5         -1.4510   -1.6110    4.3580 hc        1 PB3      0.026206
      9 H6          0.1880   -2.1440    4.6770 hc        1 PB3      0.026206
     10 C4         -0.8240   -1.2680    6.3890  c        1 PB3      0.907803
     11 O1         -1.7940   -0.6400    6.7830  o        1 PB3     -0.849610
     12 O2         -0.1150   -1.8710    7.1770  o        1 PB3     -0.849610
     13 C5          0.0050   -0.0050    2.8030 ca        1 PB3     -0.037292
     14 C6         -0.7910    0.9030    2.0950 ca        1 PB3     -0.132970
     15 H7         -1.4160    1.6130    2.6320 ha        1 PB3      0.135030
     16 C7         -0.7940    0.9050    0.7000 ca        1 PB3     -0.139969
     17 H8         -1.4180    1.6140    0.1580 ha        1 PB3      0.112525
     18 C8         -0.0000   -0.0000   -0.0000 ca        1 PB3     -0.158964
     19 H9         -0.0020    0.0010   -1.0900 ha        1 PB3      0.110025
     20 C9          0.7970   -0.9070    0.6950 ca        1 PB3     -0.139969
     21 H10         1.4190   -1.6160    0.1480 ha        1 PB3      0.112525
     22 C10         0.7990   -0.9080    2.0890 ca        1 PB3     -0.132970
     23 H11         1.4260   -1.6210    2.6230 ha        1 PB3      0.135031
@<TRIPOS>BOND
     1    1    2 1   
     2    1    3 1   
     3    1    4 1   
     4    1    5 1   
     5    5    6 1   
     6    5    7 1   
     7    5   13 1   
     8    7    8 1   
     9    7    9 1   
    10    7   10 1   
    11   10   11 1   
    12   10   12 1   
    13   13   14 ar  
    14   13   22 ar  
    15   14   15 1   
    16   14   16 ar  
    17   16   17 1   
    18   16   18 ar  
    19   18   19 1   
    20   18   20 ar  
    21   20   21 1   
    22   20   22 ar  
    23   22   23 1   
@<TRIPOS>SUBSTRUCTURE
     1 PB3         1 TEMP              0 ****  ****    0 ROOT
