@<TRIPOS>MOLECULE
Cpptraj generated mol2 file.
   17    16     1     0     0
SMALL
USER_CHARGES


@<TRIPOS>ATOM
      1 N1         19.4220   19.3830   37.6260 n4         1 BAM     -0.839600
      2 H1         20.2350   18.7500   37.6920 hn         1 BAM      0.461800
      3 H2         18.5740   18.7980   37.6920 hn         1 BAM      0.461800
      4 HN11       19.4390   19.9880   38.4630 hn         1 BAM      0.461800
      5 C1         19.4450   20.1950   36.3500 c3         1 BAM      0.098800
      6 H3         20.3510   20.8080   36.3700 hx         1 BAM      0.113700
      7 H4         18.5760   20.8590   36.3700 hx         1 BAM      0.113700
      8 C2         19.4210   19.3370   35.0710 c3         1 BAM     -0.112400
      9 H5         20.2850   18.6670   35.0630 hc         1 BAM      0.070700
     10 H6         18.5200   18.7180   35.0630 hc         1 BAM      0.070700
     11 C3         19.4460   20.2290   33.8130 c3         1 BAM     -0.076400
     12 H7         20.3460   20.8500   33.8180 hc         1 BAM      0.056700
     13 H8         18.5830   20.9000   33.8180 hc         1 BAM      0.056700
     14 C4         19.4220   19.3830   32.5260 c3         1 BAM     -0.101100
     15 H9         20.2900   18.7210   32.4830 hc         1 BAM      0.054367
     16 H10        19.4410   20.0310   31.6470 hc         1 BAM      0.054367
     17 H11        18.5170   18.7720   32.4830 hc         1 BAM      0.054366
@<TRIPOS>BOND
    1    11    14 1
    2     8    11 1
    3     5     8 1
    4     1     5 1
    5    14    15 1
    6    14    16 1
    7    14    17 1
    8    11    12 1
    9    11    13 1
   10     8     9 1
   11     8    10 1
   12     5     6 1
   13     5     7 1
   14     1     2 1
   15     1     3 1
   16     1     4 1
@<TRIPOS>SUBSTRUCTURE
      1 BAM               1 ****               0 ****  **** 
