@<TRIPOS>MOLECULE
Cpptraj
  126   132     1     0     0
SMALL
No Charge or Current Charge


@<TRIPOS>ATOM
      1 C1          24.0290    16.0540    34.2040 C.3        1 MGO       0.304529
      2 H1          25.1250    16.0000    34.3490 H          1 MGO       0.090782
      3 O1          23.6030    17.4080    33.8300 O.3        1 MGO      -0.453070
      4 C2          23.6410    15.1050    33.0750 C.3        1 MGO       0.092199
      5 H2          23.9720    14.0890    33.3100 H          1 MGO       0.102926
      6 O2          24.2570    15.5490    31.8540 O.3        1 MGO      -0.586639
      7 HO2         24.5070    16.4820    31.9380 H          1 MGO       0.425065
      8 C3          22.1440    15.1330    32.8510 C.3        1 MGO       0.093211
      9 H3          21.8510    16.1250    32.4950 H          1 MGO       0.064468
     10 O3          21.8520    14.1380    31.8570 O.3        1 MGO      -0.592567
     11 HO3         22.5780    14.1650    31.2190 H          1 MGO       0.421017
     12 C4          21.3900    14.8040    34.1310 C.3        1 MGO       0.127621
     13 H4          21.5390    13.7480    34.3740 H          1 MGO       0.080661
     14 C5          21.8470    15.6880    35.3060 C.3        1 MGO       0.104343
     15 H5          21.5780    16.7190    35.0640 H          1 MGO       0.068516
     16 O5          23.3290    15.6230    35.4290 O.3        1 MGO      -0.427383
     17 C6          21.2290    15.4030    36.6820 C.3        1 MGO       0.141081
     18 H61         20.3420    16.0240    36.8230 H          1 MGO       0.057384
     19 H62         21.9410    15.6470    37.4730 H          1 MGO       0.057384
     20 O6          20.8440    14.0260    36.7930 O.3        1 MGO      -0.593555
     21 HO6         19.9340    13.9440    36.4810 H          1 MGO       0.422027
     22 C1          24.8130    21.3710    34.2050 C.3        2 MGO       0.304529
     23 H1          25.4080    22.2940    34.3500 H          2 MGO       0.090782
     24 O1          23.4270    21.6800    33.8310 O.3        2 MGO      -0.453070
     25 C2          25.4420    20.5630    33.0750 C.3        2 MGO       0.092199
     26 H2          26.4870    20.3420    33.3110 H          2 MGO       0.102926
     27 O2          25.3650    21.3180    31.8560 O.3        2 MGO      -0.586639
     28 HO2         24.6820    22.0010    31.9390 H          2 MGO       0.425065
     29 C3          24.6680    19.2800    32.8510 C.3        2 MGO       0.093211
     30 H3          23.6630    19.5220    32.4950 H          2 MGO       0.064468
     31 O3          25.3840    18.5280    31.8570 O.3        2 MGO      -0.592567
     32 HO3         25.7240    19.1720    31.2190 H          2 MGO       0.421017
     33 C4          24.5760    18.4610    34.1310 C.3        2 MGO       0.127621
     34 H4          25.5650    18.0630    34.3740 H          2 MGO       0.080661
     35 C5          24.0390    19.3000    35.3060 C.3        2 MGO       0.104343
     36 H5          23.0120    19.5810    35.0650 H          2 MGO       0.068516
     37 O5          24.8360    20.5500    35.4290 O.3        2 MGO      -0.427383
     38 C6          23.9780    18.6200    36.6820 C.3        2 MGO       0.141081
     39 H61         22.9970    18.1630    36.8230 H          2 MGO       0.057384
     40 H62         24.1220    19.3600    37.4730 H          2 MGO       0.057384
     41 O6          24.9770    17.6000    36.7930 O.3        2 MGO      -0.593555
     42 HO6         24.5930    16.7690    36.4800 H          2 MGO       0.422027
     43 C1          20.6000    24.7100    34.2050 C.3        3 MGO       0.304529
     44 H1          20.0990    25.6860    34.3510 H          3 MGO       0.090782
     45 O1          19.6400    23.6640    33.8310 O.3        3 MGO      -0.453070
     46 C2          21.6150    24.8500    33.0760 C.3        3 MGO       0.092199
     47 H2          22.3300    25.6440    33.3120 H          3 MGO       0.102926
     48 O2          20.9240    25.1620    31.8560 O.3        3 MGO      -0.586639
     49 HO2         19.9900    24.9120    31.9400 H          3 MGO       0.425065
     50 C3          22.3400    23.5390    32.8520 C.3        3 MGO       0.093211
     51 H3          21.6280    22.7890    32.4960 H          3 MGO       0.064468
     52 O3          23.3480    23.7830    31.8570 O.3        3 MGO      -0.592567
     53 HO3         22.9610    24.3990    31.2210 H          3 MGO       0.421017
     54 C4          23.0020    23.0490    34.1320 C.3        3 MGO       0.127621
     55 H4          23.8410    23.7060    34.3760 H          3 MGO       0.080661
     56 C5          22.0070    23.0040    35.3070 C.3        3 MGO       0.104343
     57 H5          21.2510    22.2550    35.0650 H          3 MGO       0.068516
     58 O5          21.3230    24.3190    35.4300 O.3        3 MGO      -0.427383
     59 C6          22.5640    22.6100    36.6830 C.3        3 MGO       0.141081
     60 H61         22.4690    21.5320    36.8230 H          3 MGO       0.057384
     61 H62         21.9960    23.1050    37.4730 H          3 MGO       0.057384
     62 O6          23.9490    22.9660    36.7940 O.3        3 MGO      -0.593555
     63 HO6         24.4740    22.2180    36.4810 H          3 MGO       0.422027
     64 C1          15.6030    22.7320    34.2040 C.3        4 MGO       0.304529
     65 H1          14.5060    22.7850    34.3500 H          4 MGO       0.090782
     66 O1          16.0290    21.3770    33.8310 O.3        4 MGO      -0.453070
     67 C2          15.9890    23.6810    33.0750 C.3        4 MGO       0.092199
     68 H2          15.6580    24.6960    33.3110 H          4 MGO       0.102926
     69 O2          15.3740    23.2370    31.8560 O.3        4 MGO      -0.586639
     70 HO2         15.1240    22.3040    31.9390 H          4 MGO       0.425065
     71 C3          17.4870    23.6520    32.8510 C.3        4 MGO       0.093211
     72 H3          17.7790    22.6600    32.4950 H          4 MGO       0.064468
     73 O3          17.7790    24.6470    31.8570 O.3        4 MGO      -0.592567
     74 HO3         17.0530    24.6210    31.2200 H          4 MGO       0.421017
     75 C4          18.2410    23.9810    34.1320 C.3        4 MGO       0.127621
     76 H4          18.0920    25.0360    34.3750 H          4 MGO       0.080661
     77 C5          17.7840    23.0970    35.3060 C.3        4 MGO       0.104343
     78 H5          18.0530    22.0670    35.0640 H          4 MGO       0.068516
     79 O5          16.3030    23.1620    35.4290 O.3        4 MGO      -0.427383
     80 C6          18.4020    23.3820    36.6820 C.3        4 MGO       0.141081
     81 H61         19.2900    22.7610    36.8230 H          4 MGO       0.057384
     82 H62         17.6900    23.1380    37.4730 H          4 MGO       0.057384
     83 O6          18.7870    24.7580    36.7940 O.3        4 MGO      -0.593555
     84 HO6         19.6970    24.8400    36.4810 H          4 MGO       0.422027
     85 C1          14.8180    17.4140    34.2050 C.3        5 MGO       0.304529
     86 H1          14.2230    16.4910    34.3510 H          5 MGO       0.090782
     87 O1          16.2040    17.1060    33.8310 O.3        5 MGO      -0.453070
     88 C2          14.1890    18.2220    33.0750 C.3        5 MGO       0.092199
     89 H2          13.1440    18.4440    33.3110 H          5 MGO       0.102926
     90 O2          14.2660    17.4670    31.8550 O.3        5 MGO      -0.586639
     91 HO2         14.9490    16.7850    31.9390 H          5 MGO       0.425065
     92 C3          14.9620    19.5060    32.8510 C.3        5 MGO       0.093211
     93 H3          15.9680    19.2630    32.4950 H          5 MGO       0.064468
     94 O3          14.2460    20.2560    31.8570 O.3        5 MGO      -0.592567
     95 HO3         13.9070    19.6140    31.2200 H          5 MGO       0.421017
     96 C4          15.0540    20.3240    34.1320 C.3        5 MGO       0.127621
     97 H4          14.0660    20.7220    34.3740 H          5 MGO       0.080661
     98 C5          15.5920    19.4850    35.3060 C.3        5 MGO       0.104343
     99 H5          16.6180    19.2040    35.0650 H          5 MGO       0.068516
    100 O5          14.7950    18.2360    35.4290 O.3        5 MGO      -0.427383
    101 C6          15.6530    20.1650    36.6820 C.3        5 MGO       0.141081
    102 H61         16.6350    20.6220    36.8230 H          5 MGO       0.057384
    103 H62         15.5090    19.4250    37.4740 H          5 MGO       0.057384
    104 O6          14.6530    21.1860    36.7930 O.3        5 MGO      -0.593555
    105 HO6         15.0380    22.0140    36.4810 H          5 MGO       0.422027
    106 C1          19.0310    14.0750    34.2040 C.3        6 MGO       0.304529
    107 H1          19.5320    13.0980    34.3510 H          6 MGO       0.090782
    108 O1          19.9910    15.1210    33.8300 O.3        6 MGO      -0.453070
    109 C2          18.0160    13.9350    33.0760 C.3        6 MGO       0.092199
    110 H2          17.3010    13.1410    33.3110 H          6 MGO       0.102926
    111 O2          18.7080    13.6240    31.8550 O.3        6 MGO      -0.586639
    112 HO2         19.6410    13.8740    31.9390 H          6 MGO       0.425065
    113 C3          17.2910    15.2460    32.8510 C.3        6 MGO       0.093211
    114 H3          18.0040    15.9950    32.4950 H          6 MGO       0.064468
    115 O3          16.2830    15.0020    31.8580 O.3        6 MGO      -0.592567
    116 HO3         16.6690    14.3860    31.2200 H          6 MGO       0.421017
    117 C4          16.6290    15.7350    34.1320 C.3        6 MGO       0.127621
    118 H4          15.7900    15.0780    34.3750 H          6 MGO       0.080661
    119 C5          17.6240    15.7810    35.3060 C.3        6 MGO       0.104343
    120 H5          18.3810    16.5300    35.0640 H          6 MGO       0.068516
    121 O5          18.3080    14.4660    35.4290 O.3        6 MGO      -0.427383
    122 C6          17.0670    16.1750    36.6820 C.3        6 MGO       0.141081
    123 H61         17.1620    17.2540    36.8230 H          6 MGO       0.057384
    124 H62         17.6350    15.6800    37.4730 H          6 MGO       0.057384
    125 O6          15.6820    15.8190    36.7940 O.3        6 MGO      -0.593555
    126 HO6         15.1560    16.5670    36.4810 H          6 MGO       0.422027
@<TRIPOS>BOND
     1    17    20 1   
     2    14    16 1   
     3    14    17 1   
     4    12    14 1   
     5    12   108 1   
     6     8    10 1   
     7     8    12 1   
     8     4     6 1   
     9     4     8 1   
    10     3    33 1   
    11     1     3 1   
    12     1     4 1   
    13     1    16 1   
    14    38    41 1   
    15    35    37 1   
    16    35    38 1   
    17    33    35 1   
    18    29    31 1   
    19    29    33 1   
    20    25    27 1   
    21    25    29 1   
    22    24    54 1   
    23    22    24 1   
    24    22    25 1   
    25    22    37 1   
    26    59    62 1   
    27    56    58 1   
    28    56    59 1   
    29    54    56 1   
    30    50    52 1   
    31    50    54 1   
    32    46    48 1   
    33    46    50 1   
    34    45    75 1   
    35    43    45 1   
    36    43    46 1   
    37    43    58 1   
    38    80    83 1   
    39    77    79 1   
    40    77    80 1   
    41    75    77 1   
    42    71    73 1   
    43    71    75 1   
    44    67    69 1   
    45    67    71 1   
    46    66    96 1   
    47    64    66 1   
    48    64    67 1   
    49    64    79 1   
    50   101   104 1   
    51    98   100 1   
    52    98   101 1   
    53    96    98 1   
    54    92    94 1   
    55    92    96 1   
    56    88    90 1   
    57    88    92 1   
    58    87   117 1   
    59    85    87 1   
    60    85    88 1   
    61    85   100 1   
    62   122   125 1   
    63   119   121 1   
    64   119   122 1   
    65   117   119 1   
    66   113   115 1   
    67   113   117 1   
    68   109   111 1   
    69   109   113 1   
    70   106   108 1   
    71   106   109 1   
    72   106   121 1   
    73    20    21 1   
    74    17    18 1   
    75    17    19 1   
    76    14    15 1   
    77    12    13 1   
    78    10    11 1   
    79     8     9 1   
    80     6     7 1   
    81     4     5 1   
    82     1     2 1   
    83    41    42 1   
    84    38    39 1   
    85    38    40 1   
    86    35    36 1   
    87    33    34 1   
    88    31    32 1   
    89    29    30 1   
    90    27    28 1   
    91    25    26 1   
    92    22    23 1   
    93    62    63 1   
    94    59    60 1   
    95    59    61 1   
    96    56    57 1   
    97    54    55 1   
    98    52    53 1   
    99    50    51 1   
   100    48    49 1   
   101    46    47 1   
   102    43    44 1   
   103    83    84 1   
   104    80    81 1   
   105    80    82 1   
   106    77    78 1   
   107    75    76 1   
   108    73    74 1   
   109    71    72 1   
   110    69    70 1   
   111    67    68 1   
   112    64    65 1   
   113   104   105 1   
   114   101   102 1   
   115   101   103 1   
   116    98    99 1   
   117    96    97 1   
   118    94    95 1   
   119    92    93 1   
   120    90    91 1   
   121    88    89 1   
   122    85    86 1   
   123   125   126 1   
   124   122   123 1   
   125   122   124 1   
   126   119   120 1   
   127   117   118 1   
   128   115   116 1   
   129   113   114 1   
   130   111   112 1   
   131   109   110 1   
   132   106   107 1   
@<TRIPOS>SUBSTRUCTURE
     1 MGO         1 TEMP              0 ****  ****    0 ROOT
