@<TRIPOS>MOLECULE
Cpptraj generated mol2 file.
  147   154     7     0     0
SMALL
USER_CHARGES


@<TRIPOS>ATOM
      1 C1         24.1240   15.7780   33.3020 c3         1 MGO      0.304529
      2 H1         25.2120   15.6160   33.4320 h2         1 MGO      0.090782
      3 O1         23.8230   17.1840   32.9990 os         1 MGO     -0.453070
      4 C2         23.6510   14.9130   32.1380 c3         1 MGO      0.092199
      5 H2         23.9180   13.8700   32.3230 h1         1 MGO      0.102926
      6 O2         24.2670   15.3610   30.9190 oh         1 MGO     -0.586639
      7 HO2        24.6190   16.2590   31.0340 ho         1 MGO      0.425065
      8 C3         22.1530   15.0400   31.9490 c3         1 MGO      0.093211
      9 H3         21.9070   16.0640   31.6540 h1         1 MGO      0.064468
     10 O3         21.7890   14.1100   30.9160 oh         1 MGO     -0.592567
     11 HO3        22.5040   14.1340   30.2660 ho         1 MGO      0.421017
     12 C4         21.4290   14.6760   33.2350 c3         1 MGO      0.127621
     13 H4         21.5900   13.6160   33.4480 h1         1 MGO      0.080661
     14 C5         21.9330   15.5200   34.4170 c3         1 MGO      0.104343
     15 H5         21.7200   16.5680   34.1940 h1         1 MGO      0.068516
     16 O5         23.4080   15.3650   34.5250 os         1 MGO     -0.427383
     17 C6         21.3000   15.2370   35.7870 c3         1 MGO      0.141081
     18 H61        20.4140   15.8620   35.9180 h1         1 MGO      0.057384
     19 H62        22.0070   15.4780   36.5840 h1         1 MGO      0.057384
     20 O6         20.9080   13.8620   35.8920 oh         1 MGO     -0.593555
     21 HO6        20.0010   13.7820   35.5710 ho         1 MGO      0.422027
     22 C1         25.7690   20.8850   33.3010 c3         2 MGO      0.304529
     23 H1         26.5750   21.6350   33.4300 h2         2 MGO      0.090782
     24 O1         24.4820   21.5260   32.9990 os         2 MGO     -0.453070
     25 C2         26.1500   19.9760   32.1370 c3         2 MGO      0.092199
     26 H2         27.1340   19.5340   32.3220 h1         2 MGO      0.102926
     27 O2         26.1830   20.7360   30.9180 oh         2 MGO     -0.586639
     28 HO2        25.7010   21.5710   31.0330 ho         2 MGO      0.425065
     29 C3         25.1160   18.8840   31.9490 c3         2 MGO      0.093211
     30 H3         24.1620   19.3290   31.6540 h1         2 MGO      0.064468
     31 O3         25.6160   18.0190   30.9160 oh         2 MGO     -0.592567
     32 HO3        26.0450   18.5930   30.2650 ho         2 MGO      0.421017
     33 C4         24.9500   18.0910   33.2350 c3         2 MGO      0.127621
     34 H4         25.8800   17.5560   33.4470 h1         2 MGO      0.080661
     35 C5         24.6060   19.0110   34.4170 c3         2 MGO      0.104343
     36 H5         23.6540   19.4980   34.1930 h1         2 MGO      0.068516
     37 O5         25.6460   20.0690   34.5250 os         2 MGO     -0.427383
     38 C6         24.4320   18.3410   35.7860 c3         2 MGO      0.141081
     39 H61        23.3910   18.0380   35.9190 h1         2 MGO      0.057384
     40 H62        24.6850   19.0440   36.5840 h1         2 MGO      0.057384
     41 O6         25.2630   17.1770   35.8920 oh         2 MGO     -0.593555
     42 HO6        24.7600   16.4170   35.5710 ho         2 MGO      0.422027
     43 C1         22.8020   25.3560   33.3010 c3         3 MGO      0.304529
     44 H1         22.7180   26.4530   33.4300 h2         3 MGO      0.090782
     45 O1         21.4990   24.7490   32.9990 os         3 MGO     -0.453070
     46 C2         23.7500   25.0860   32.1360 c3         3 MGO      0.092199
     47 H2         24.7080   25.5800   32.3200 h1         3 MGO      0.102926
     48 O2         23.1760   25.5860   30.9180 oh         3 MGO     -0.586639
     49 HO2        22.2230   25.7310   31.0330 ho         3 MGO      0.425065
     50 C3         23.9590   23.5970   31.9480 c3         3 MGO      0.093211
     51 H3         23.0160   23.1290   31.6540 h1         3 MGO      0.064468
     52 O3         24.9460   23.4490   30.9150 oh         3 MGO     -0.592567
     53 HO3        24.7640   24.1420   30.2640 ho         3 MGO      0.421017
     54 C4         24.4760   22.9730   33.2340 c3         3 MGO      0.127621
     55 H4         25.4740   23.3680   33.4460 h1         3 MGO      0.080661
     56 C5         23.5430   23.2780   34.4150 c3         3 MGO      0.104343
     57 H5         22.5680   22.8370   34.1930 h1         3 MGO      0.068516
     58 O5         23.3640   24.7510   34.5240 os         3 MGO     -0.427383
     59 C6         23.9590   22.7240   35.7860 c3         3 MGO      0.141081
     60 H61        23.5460   21.7220   35.9180 h1         3 MGO      0.057384
     61 H62        23.5660   23.3610   36.5840 h1         3 MGO      0.057384
     62 O6         25.3870   22.6490   35.8920 oh         3 MGO     -0.593555
     63 HO6        25.6670   21.7810   35.5700 ho         3 MGO      0.422027
     64 C1         17.4560   25.8230   33.3020 c3         4 MGO      0.304529
     65 H1         16.5470   26.4410   33.4310 h2         4 MGO      0.090782
     66 O1         17.1190   24.4250   32.9990 os         4 MGO     -0.453070
     67 C2         18.2580   26.3960   32.1380 c3         4 MGO      0.092199
     68 H2         18.4700   27.4530   32.3220 h1         4 MGO      0.102926
     69 O2         17.5090   26.2590   30.9180 oh         4 MGO     -0.586639
     70 HO2        16.8010   25.6050   31.0350 ho         4 MGO      0.425065
     71 C3         19.5520   25.6320   31.9490 c3         4 MGO      0.093211
     72 H3         19.3310   24.6030   31.6540 h1         4 MGO      0.064468
     73 O3         20.2840   26.3110   30.9160 oh         4 MGO     -0.592567
     74 HO3        19.6290   26.6010   30.2650 ho         4 MGO      0.421017
     75 C4         20.3640   25.6460   33.2340 c3         4 MGO      0.127621
     76 H4         20.6770   26.6710   33.4470 h1         4 MGO      0.080661
     77 C5         19.5430   25.1060   34.4160 c3         4 MGO      0.104343
     78 H5         19.2800   24.0690   34.1930 h1         4 MGO      0.068516
     79 O5         18.2800   25.8850   34.5240 os         4 MGO     -0.427383
     80 C6         20.2360   25.0860   35.7860 c3         4 MGO      0.141081
     81 H61        20.7630   24.1380   35.9190 h1         4 MGO      0.057384
     82 H62        19.4940   25.1750   36.5840 h1         4 MGO      0.057384
     83 O6         21.1850   26.1540   35.8920 oh         4 MGO     -0.593555
     84 HO6        22.0380   25.8340   35.5690 ho         4 MGO      0.422027
     85 C1         13.7580   21.9350   33.3020 c3         5 MGO      0.304529
     86 H1         12.7080   21.6100   33.4320 h2         5 MGO      0.090782
     87 O1         14.6400   20.8000   32.9990 os         5 MGO     -0.453070
     88 C2         13.8100   22.9200   32.1380 c3         5 MGO      0.092199
     89 H2         13.1150   23.7440   32.3240 h1         5 MGO      0.102926
     90 O2         13.4500   22.2500   30.9200 oh         5 MGO     -0.586639
     91 HO2        13.5210   21.2880   31.0340 ho         5 MGO      0.425065
     92 C3         15.2140   23.4550   31.9500 c3         5 MGO      0.093211
     93 H3         15.8810   22.6400   31.6540 h1         5 MGO      0.064468
     94 O3         15.1400   24.4510   30.9170 oh         5 MGO     -0.592567
     95 HO3        14.5050   24.1200   30.2660 ho         5 MGO      0.421017
     96 C4         15.7090   24.0980   33.2350 c3         5 MGO      0.127621
     97 H4         15.1030   24.9820   33.4480 h1         5 MGO      0.080661
     98 C5         15.6210   23.1190   34.4170 c3         5 MGO      0.104343
     99 H5         16.2670   22.2670   34.1940 h1         5 MGO      0.068516
    100 O5         14.2240   22.6180   34.5260 os         5 MGO     -0.427383
    101 C6         16.0680   23.6480   35.7870 c3         5 MGO      0.141081
    102 H61        17.1370   23.4690   35.9190 h1         5 MGO      0.057384
    103 H62        15.5360   23.1240   36.5840 h1         5 MGO      0.057384
    104 O6         15.8240   25.0570   35.8930 oh         5 MGO     -0.593555
    105 HO6        16.6070   25.5230   35.5710 ho         5 MGO      0.422027
    106 C1         14.4920   16.6200   33.3020 c3         6 MGO      0.304529
    107 H1         14.0910   15.5950   33.4300 h2         6 MGO      0.090782
    108 O1         15.9300   16.6010   32.9990 os         6 MGO     -0.453070
    109 C2         13.7550   17.2750   32.1370 c3         6 MGO      0.092199
    110 H2         12.6770   17.2460   32.3220 h1         6 MGO      0.102926
    111 O2         14.0550   16.5750   30.9180 oh         6 MGO     -0.586639
    112 HO2        14.8510   16.0310   31.0330 ho         6 MGO      0.425065
    113 C3         14.2120   18.7060   31.9490 c3         6 MGO      0.093211
    114 H3         15.2650   18.7190   31.6540 h1         6 MGO      0.064468
    115 O3         13.3870   19.2690   30.9160 oh         6 MGO     -0.592567
    116 HO3        13.2500   18.5660   30.2650 ho         6 MGO      0.421017
    117 C4         14.0170   19.4930   33.2350 c3         6 MGO      0.127621
    118 H4         12.9490   19.5710   33.4470 h1         6 MGO      0.080661
    119 C5         14.7280   18.8130   34.4160 c3         6 MGO      0.104343
    120 H5         15.7960   18.7880   34.1940 h1         6 MGO      0.068516
    121 O5         14.2480   17.4090   34.5240 os         6 MGO     -0.427383
    122 C6         14.5920   19.4920   35.7860 c3         6 MGO      0.141081
    123 H61        15.3990   20.2170   35.9190 h1         6 MGO      0.057384
    124 H62        14.6700   18.7490   36.5840 h1         6 MGO      0.057384
    125 O6         13.3380   20.1810   35.8920 oh         6 MGO     -0.593555
    126 HO6        13.4630   21.0840   35.5710 ho         6 MGO      0.422027
    127 C1         19.1060   13.8800   33.3010 c3         7 MGO      0.304529
    128 H1         19.6580   12.9280   33.4300 h2         7 MGO      0.090782
    129 O1         20.0160   14.9920   32.9990 os         7 MGO     -0.453070
    130 C2         18.1340   13.7110   32.1360 c3         7 MGO      0.092199
    131 H2         17.4850   12.8510   32.3220 h1         7 MGO      0.102926
    132 O2         18.8680   13.5100   30.9180 oh         7 MGO     -0.586639
    133 HO2        19.7900   13.7930   31.0340 ho         7 MGO      0.425065
    134 C3         17.3000   14.9610   31.9490 c3         7 MGO      0.093211
    135 H3         17.9460   15.7930   31.6530 h1         7 MGO      0.064468
    136 O3         16.3460   14.6670   30.9150 oh         7 MGO     -0.592567
    137 HO3        16.8100   14.1220   30.2650 ho         7 MGO      0.421017
    138 C4         16.5630   15.3010   33.2350 c3         7 MGO      0.127621
    139 H4         15.8360   14.5130   33.4470 h1         7 MGO      0.080661
    140 C5         17.5370   15.4310   34.4160 c3         7 MGO      0.104343
    141 H5         18.2230   16.2510   34.1930 h1         7 MGO      0.068516
    142 O5         18.3360   14.1820   34.5240 os         7 MGO     -0.427383
    143 C6         16.9210   15.7490   35.7860 c3         7 MGO      0.141081
    144 H61        16.8580   16.8310   35.9190 h1         7 MGO      0.057384
    145 H62        17.5510   15.3460   36.5830 h1         7 MGO      0.057384
    146 O6         15.6020   15.1980   35.8920 oh         7 MGO     -0.593555
    147 HO6        14.9730   15.8570   35.5700 ho         7 MGO      0.422027
@<TRIPOS>BOND
    1    17    20 1
    2    14    16 1
    3    14    17 1
    4    12    14 1
    5    12   129 1
    6     8    10 1
    7     8    12 1
    8     4     6 1
    9     4     8 1
   10     3    33 1
   11     1     3 1
   12     1     4 1
   13     1    16 1
   14    38    41 1
   15    35    37 1
   16    35    38 1
   17    33    35 1
   18    29    31 1
   19    29    33 1
   20    25    27 1
   21    25    29 1
   22    24    54 1
   23    22    24 1
   24    22    25 1
   25    22    37 1
   26    59    62 1
   27    56    58 1
   28    56    59 1
   29    54    56 1
   30    50    52 1
   31    50    54 1
   32    46    48 1
   33    46    50 1
   34    45    75 1
   35    43    45 1
   36    43    46 1
   37    43    58 1
   38    80    83 1
   39    77    79 1
   40    77    80 1
   41    75    77 1
   42    71    73 1
   43    71    75 1
   44    67    69 1
   45    67    71 1
   46    66    96 1
   47    64    66 1
   48    64    67 1
   49    64    79 1
   50   101   104 1
   51    98   100 1
   52    98   101 1
   53    96    98 1
   54    92    94 1
   55    92    96 1
   56    88    90 1
   57    88    92 1
   58    87   117 1
   59    85    87 1
   60    85    88 1
   61    85   100 1
   62   122   125 1
   63   119   121 1
   64   119   122 1
   65   117   119 1
   66   113   115 1
   67   113   117 1
   68   109   111 1
   69   109   113 1
   70   108   138 1
   71   106   108 1
   72   106   109 1
   73   106   121 1
   74   143   146 1
   75   140   142 1
   76   140   143 1
   77   138   140 1
   78   134   136 1
   79   134   138 1
   80   130   132 1
   81   130   134 1
   82   127   129 1
   83   127   130 1
   84   127   142 1
   85    20    21 1
   86    17    18 1
   87    17    19 1
   88    14    15 1
   89    12    13 1
   90    10    11 1
   91     8     9 1
   92     6     7 1
   93     4     5 1
   94     1     2 1
   95    41    42 1
   96    38    39 1
   97    38    40 1
   98    35    36 1
   99    33    34 1
  100    31    32 1
  101    29    30 1
  102    27    28 1
  103    25    26 1
  104    22    23 1
  105    62    63 1
  106    59    60 1
  107    59    61 1
  108    56    57 1
  109    54    55 1
  110    52    53 1
  111    50    51 1
  112    48    49 1
  113    46    47 1
  114    43    44 1
  115    83    84 1
  116    80    81 1
  117    80    82 1
  118    77    78 1
  119    75    76 1
  120    73    74 1
  121    71    72 1
  122    69    70 1
  123    67    68 1
  124    64    65 1
  125   104   105 1
  126   101   102 1
  127   101   103 1
  128    98    99 1
  129    96    97 1
  130    94    95 1
  131    92    93 1
  132    90    91 1
  133    88    89 1
  134    85    86 1
  135   125   126 1
  136   122   123 1
  137   122   124 1
  138   119   120 1
  139   117   118 1
  140   115   116 1
  141   113   114 1
  142   111   112 1
  143   109   110 1
  144   106   107 1
  145   146   147 1
  146   143   144 1
  147   143   145 1
  148   140   141 1
  149   138   139 1
  150   136   137 1
  151   134   135 1
  152   132   133 1
  153   130   131 1
  154   127   128 1
@<TRIPOS>SUBSTRUCTURE
      1 MGO               1 ****               0 ****  **** 
      2 MGO              22 ****               0 ****  **** 
      3 MGO              43 ****               0 ****  **** 
      4 MGO              64 ****               0 ****  **** 
      5 MGO              85 ****               0 ****  **** 
      6 MGO             106 ****               0 ****  **** 
      7 MGO             127 ****               0 ****  **** 
