@<TRIPOS>MOLECULE
Cpptraj
  147   154     1     0     0
SMALL
No Charge or Current Charge


@<TRIPOS>ATOM
      1 C1          23.3150    14.7550    34.8970 C.3        1 MGO       0.304529
      2 H1          24.3250    14.3350    35.0740 H          1 MGO       0.090782
      3 O1          23.3820    16.1720    34.5200 O.3        1 MGO      -0.453070
      4 C2          22.6690    13.9720    33.7590 C.3        1 MGO       0.092199
      5 H2          22.6620    12.9070    34.0010 H          1 MGO       0.102926
      6 O2          23.4050    14.1880    32.5430 O.3        1 MGO      -0.586639
      7 HO2         23.9680    14.9750    32.6290 H          1 MGO       0.425065
      8 C3          21.2550    14.4560    33.5100 C.3        1 MGO       0.093211
      9 H3          21.2780    15.4930    33.1590 H          1 MGO       0.064468
     10 O3          20.6940    13.5920    32.5090 O.3        1 MGO      -0.592567
     11 HO3         21.4080    13.4030    31.8840 H          1 MGO       0.421017
     12 C4          20.4320    14.3530    34.7850 C.3        1 MGO       0.127621
     13 H4          20.3200    13.2990    35.0520 H          1 MGO       0.080661
     14 C5          21.1040    15.1080    35.9430 C.3        1 MGO       0.104343
     15 H5          21.1630    16.1620    35.6650 H          1 MGO       0.068516
     16 O5          22.4900    14.5980    36.1110 O.3        1 MGO      -0.427383
     17 C6          20.3880    15.0640    37.3010 C.3        1 MGO       0.141081
     18 H61         19.6830    15.8960    37.3720 H          1 MGO       0.057384
     19 H62         21.1140    15.1650    38.1110 H          1 MGO       0.057384
     20 O6          19.6630    13.8370    37.4560 O.3        1 MGO      -0.593555
     21 HO6         18.7720    13.9680    37.1060 H          1 MGO       0.422027
     22 C1          26.1820    19.2860    34.7210 C.3        2 MGO       0.304529
     23 H1          27.1460    19.8180    34.8440 H          2 MGO       0.090782
     24 O1          25.1040    20.2090    34.3430 O.3        2 MGO      -0.453070
     25 C2          26.3510    18.2500    33.6140 C.3        2 MGO       0.092199
     26 H2          27.1890    17.5880    33.8540 H          2 MGO       0.102926
     27 O2          26.6010    18.9110    32.3630 O.3        2 MGO      -0.586639
     28 HO2         26.3410    19.8450    32.4230 H          2 MGO       0.425065
     29 C3          25.0830    17.4400    33.4400 C.3        2 MGO       0.093211
     30 H3          24.2760    18.0910    33.0910 H          2 MGO       0.064468
     31 O3          25.3750    16.4240    32.4660 O.3        2 MGO      -0.592567
     32 HO3         25.9480    16.8380    31.8050 H          2 MGO       0.421017
     33 C4          24.6930    16.7830    34.7540 C.3        2 MGO       0.127621
     34 H4          25.4540    16.0460    35.0240 H          2 MGO       0.080661
     35 C5          24.5620    17.8220    35.8790 C.3        2 MGO       0.104343
     36 H5          23.7670    18.5160    35.5990 H          2 MGO       0.068516
     37 O5          25.8300    18.5930    35.9750 O.3        2 MGO      -0.427383
     38 C6          24.1950    17.2890    37.2710 C.3        2 MGO       0.141081
     39 H61         23.1080    17.2630    37.3800 H          2 MGO       0.057384
     40 H62         24.5950    17.9510    38.0430 H          2 MGO       0.057384
     41 O6          24.7060    15.9640    37.4600 O.3        2 MGO      -0.593555
     42 HO6         24.0370    15.3360    37.1570 H          2 MGO       0.422027
     43 C1          24.4250    24.3470    34.4070 C.3        3 MGO       0.304529
     44 H1          24.6140    25.4350    34.4820 H          3 MGO       0.090782
     45 O1          23.0180    24.0660    34.0870 O.3        3 MGO      -0.453070
     46 C2          25.3020    23.7880    33.2910 C.3        3 MGO       0.092199
     47 H2          26.3500    24.0370    33.4870 H          3 MGO       0.102926
     48 O2          24.9000    24.3480    32.0310 O.3        3 MGO      -0.586639
     49 HO2         24.0110    24.7310    32.1050 H          3 MGO       0.425065
     50 C3          25.1380    22.2860    33.1800 C.3        3 MGO       0.093211
     51 H3          24.1150    22.0510    32.8730 H          3 MGO       0.064468
     52 O3          26.0820    21.8420    32.1910 O.3        3 MGO      -0.592567
     53 HO3         26.0930    22.5230    31.5020 H          3 MGO       0.421017
     54 C4          25.4530    21.6230    34.5110 C.3        3 MGO       0.127621
     55 H4          26.5120    21.7680    34.7400 H          3 MGO       0.080661
     56 C5          24.5980    22.2130    35.6420 C.3        3 MGO       0.104343
     57 H5          23.5490    22.0160    35.4060 H          3 MGO       0.068516
     58 O5          24.7900    23.6870    35.6760 O.3        3 MGO      -0.427383
     59 C6          24.8290    21.6480    37.0510 C.3        3 MGO       0.141081
     60 H61         24.1780    20.7870    37.2150 H          3 MGO       0.057384
     61 H62         24.5910    22.4030    37.8040 H          3 MGO       0.057384
     62 O6          26.1920    21.2250    37.2120 O.3        3 MGO      -0.593555
     63 HO6         26.2530    20.2990    36.9410 H          3 MGO       0.422027
     64 C1          19.3660    26.1240    34.1950 C.3        4 MGO       0.304529
     65 H1          18.6370    26.9550    34.2610 H          4 MGO       0.090782
     66 O1          18.6980    24.8400    33.9440 O.3        4 MGO      -0.453070
     67 C2          20.3140    26.4170    33.0340 C.3        4 MGO       0.092199
     68 H2          20.7770    27.3970    33.1780 H          4 MGO       0.102926
     69 O2          19.5820    26.4050    31.7960 O.3        4 MGO      -0.586639
     70 HO2         18.7320    25.9540    31.9170 H          4 MGO       0.425065
     71 C3          21.3790    25.3470    32.9280 C.3        4 MGO       0.093211
     72 H3          20.9150    24.3910    32.6720 H          4 MGO       0.064468
     73 O3          22.2820    25.7670    31.8910 O.3        4 MGO      -0.592567
     74 HO3         21.7360    26.1750    31.2050 H          4 MGO       0.421017
     75 C4          22.1390    25.2280    34.2400 C.3        4 MGO       0.127621
     76 H4          22.6930    26.1530    34.4160 H          4 MGO       0.080661
     77 C5          21.1820    24.9720    35.4140 C.3        4 MGO       0.104343
     78 H5          20.6740    24.0230    35.2310 H          4 MGO       0.068516
     79 O5          20.1510    26.0450    35.4420 O.3        4 MGO      -0.427383
     80 C6          21.8150    24.8550    36.8080 C.3        4 MGO       0.141081
     81 H61         22.0860    23.8140    37.0030 H          4 MGO       0.057384
     82 H62         21.1010    25.1680    37.5740 H          4 MGO       0.057384
     83 O6          22.9990    25.6590    36.8980 O.3        4 MGO      -0.593555
     84 HO6         23.7520    25.1190    36.6220 H          4 MGO       0.422027
     85 C1          14.8160    23.2800    34.2400 C.3        5 MGO       0.304529
     86 H1          13.7150    23.2330    34.3470 H          5 MGO       0.090782
     87 O1          15.3940    21.9480    34.0210 O.3        5 MGO      -0.453070
     88 C2          15.1400    24.1580    33.0340 C.3        5 MGO       0.092199
     89 H2          14.6680    25.1380    33.1570 H          5 MGO       0.102926
     90 O2          14.6520    23.5330    31.8360 O.3        5 MGO      -0.586639
     91 HO2         14.4780    22.5920    31.9970 H          5 MGO       0.425065
     92 C3          16.6370    24.3170    32.8720 C.3        5 MGO       0.093211
     93 H3          17.0860    23.3470    32.6390 H          5 MGO       0.064468
     94 O3          16.8380    25.2440    31.7920 O.3        5 MGO      -0.592567
     95 HO3         16.1560    25.0460    31.1350 H          5 MGO       0.421017
     96 C4          17.2460    24.8850    34.1440 C.3        5 MGO       0.127621
     97 H4          16.8760    25.9030    34.2940 H          5 MGO       0.080661
     98 C5          16.8890    24.0230    35.3650 C.3        5 MGO       0.104343
     99 H5          17.3070    23.0280    35.2050 H          5 MGO       0.068516
    100 O5          15.4090    23.8920    35.4470 O.3        5 MGO      -0.427383
    101 C6          17.4210    24.4980    36.7250 C.3        5 MGO       0.141081
    102 H61         18.4090    24.0670    36.9040 H          5 MGO       0.057384
    103 H62         16.7570    24.1650    37.5260 H          5 MGO       0.057384
    104 O6          17.5350    25.9270    36.7570 O.3        5 MGO      -0.593555
    105 HO6         18.4160    26.1660    36.4420 H          5 MGO       0.422027
    106 C1          14.2010    17.9570    34.5110 C.3        6 MGO       0.304529
    107 H1          13.5540    17.0730    34.6710 H          6 MGO       0.090782
    108 O1          15.5950    17.5670    34.2620 O.3        6 MGO      -0.453070
    109 C2          13.6770    18.7110    33.2910 C.3        6 MGO       0.092199
    110 H2          12.6230    18.9600    33.4380 H          6 MGO       0.102926
    111 O2          13.8220    17.8940    32.1180 O.3        6 MGO      -0.586639
    112 HO2         14.4540    17.1770    32.2870 H          6 MGO       0.425065
    113 C3          14.4820    19.9720    33.0540 C.3        6 MGO       0.093211
    114 H3          15.5110    19.7080    32.7970 H          6 MGO       0.064468
    115 O3          13.8480    20.6650    31.9670 O.3        6 MGO      -0.592567
    116 HO3         13.5560    19.9850    31.3450 H          6 MGO       0.421017
    117 C4          14.4590    20.8500    34.2950 C.3        6 MGO       0.127621
    118 H4          13.4390    21.2020    34.4640 H          6 MGO       0.080661
    119 C5          14.9500    20.0800    35.5300 C.3        6 MGO       0.104343
    120 H5          15.9820    19.7790    35.3490 H          6 MGO       0.068516
    121 O5          14.1330    18.8460    35.6870 O.3        6 MGO      -0.427383
    122 C6          14.9560    20.8450    36.8620 C.3        6 MGO       0.141081
    123 H61         15.9150    21.3520    36.9910 H          6 MGO       0.057384
    124 H62         14.8270    20.1480    37.6960 H          6 MGO       0.057384
    125 O6          13.9120    21.8260    36.8910 O.3        6 MGO      -0.593555
    126 HO6         14.2640    22.6520    36.5330 H          6 MGO       0.422027
    127 C1          17.9840    14.1620    34.8030 C.3        7 MGO       0.304529
    128 H1          18.2770    13.1120    34.9960 H          7 MGO       0.090782
    129 O1          19.1490    14.9960    34.4830 O.3        7 MGO      -0.453070
    130 C2          17.0280    14.1780    33.6130 C.3        7 MGO       0.092199
    131 H2          16.1800    13.5170    33.8150 H          7 MGO       0.102926
    132 O2          17.7170    13.7360    32.4330 O.3        7 MGO      -0.586639
    133 HO2         18.6770    13.7870    32.5690 H          7 MGO       0.425065
    134 C3          16.5370    15.5850    33.3380 C.3        7 MGO       0.093211
    135 H3          17.3770    16.2120    33.0280 H          7 MGO       0.064468
    136 O3          15.5640    15.4810    32.2850 O.3        7 MGO      -0.592567
    137 HO3         15.8930    14.8040    31.6780 H          7 MGO       0.421017
    138 C4          15.8770    16.1640    34.5800 C.3        7 MGO       0.127621
    139 H4          14.9720    15.5930    34.8010 H          7 MGO       0.080661
    140 C5          16.8250    16.1120    35.7890 C.3        7 MGO       0.104343
    141 H5          17.7000    16.7240    35.5520 H          7 MGO       0.068516
    142 O5          17.2840    14.7120    35.9820 O.3        7 MGO      -0.427383
    143 C6          16.2770    16.6460    37.1190 C.3        7 MGO       0.141081
    144 H61         16.4820    17.7160    37.1990 H          7 MGO       0.057384
    145 H62         16.7670    16.1430    37.9560 H          7 MGO       0.057384
    146 O6          14.8590    16.4450    37.2020 O.3        7 MGO      -0.593555
    147 HO6         14.4230    17.2220    36.8280 H          7 MGO       0.422027
@<TRIPOS>BOND
     1    17    20 1   
     2    14    16 1   
     3    14    17 1   
     4    12    14 1   
     5    12   129 1   
     6     8    10 1   
     7     8    12 1   
     8     4     6 1   
     9     4     8 1   
    10     3    33 1   
    11     1     3 1   
    12     1     4 1   
    13     1    16 1   
    14    38    41 1   
    15    35    37 1   
    16    35    38 1   
    17    33    35 1   
    18    29    31 1   
    19    29    33 1   
    20    25    27 1   
    21    25    29 1   
    22    24    54 1   
    23    22    24 1   
    24    22    25 1   
    25    22    37 1   
    26    59    62 1   
    27    56    58 1   
    28    56    59 1   
    29    54    56 1   
    30    50    52 1   
    31    50    54 1   
    32    46    48 1   
    33    46    50 1   
    34    45    75 1   
    35    43    45 1   
    36    43    46 1   
    37    43    58 1   
    38    80    83 1   
    39    77    79 1   
    40    77    80 1   
    41    75    77 1   
    42    71    73 1   
    43    71    75 1   
    44    67    69 1   
    45    67    71 1   
    46    66    96 1   
    47    64    66 1   
    48    64    67 1   
    49    64    79 1   
    50   101   104 1   
    51    98   100 1   
    52    98   101 1   
    53    96    98 1   
    54    92    94 1   
    55    92    96 1   
    56    88    90 1   
    57    88    92 1   
    58    87   117 1   
    59    85    87 1   
    60    85    88 1   
    61    85   100 1   
    62   122   125 1   
    63   119   121 1   
    64   119   122 1   
    65   117   119 1   
    66   113   115 1   
    67   113   117 1   
    68   109   111 1   
    69   109   113 1   
    70   108   138 1   
    71   106   108 1   
    72   106   109 1   
    73   106   121 1   
    74   143   146 1   
    75   140   142 1   
    76   140   143 1   
    77   138   140 1   
    78   134   136 1   
    79   134   138 1   
    80   130   132 1   
    81   130   134 1   
    82   127   129 1   
    83   127   130 1   
    84   127   142 1   
    85    20    21 1   
    86    17    18 1   
    87    17    19 1   
    88    14    15 1   
    89    12    13 1   
    90    10    11 1   
    91     8     9 1   
    92     6     7 1   
    93     4     5 1   
    94     1     2 1   
    95    41    42 1   
    96    38    39 1   
    97    38    40 1   
    98    35    36 1   
    99    33    34 1   
   100    31    32 1   
   101    29    30 1   
   102    27    28 1   
   103    25    26 1   
   104    22    23 1   
   105    62    63 1   
   106    59    60 1   
   107    59    61 1   
   108    56    57 1   
   109    54    55 1   
   110    52    53 1   
   111    50    51 1   
   112    48    49 1   
   113    46    47 1   
   114    43    44 1   
   115    83    84 1   
   116    80    81 1   
   117    80    82 1   
   118    77    78 1   
   119    75    76 1   
   120    73    74 1   
   121    71    72 1   
   122    69    70 1   
   123    67    68 1   
   124    64    65 1   
   125   104   105 1   
   126   101   102 1   
   127   101   103 1   
   128    98    99 1   
   129    96    97 1   
   130    94    95 1   
   131    92    93 1   
   132    90    91 1   
   133    88    89 1   
   134    85    86 1   
   135   125   126 1   
   136   122   123 1   
   137   122   124 1   
   138   119   120 1   
   139   117   118 1   
   140   115   116 1   
   141   113   114 1   
   142   111   112 1   
   143   109   110 1   
   144   106   107 1   
   145   146   147 1   
   146   143   144 1   
   147   143   145 1   
   148   140   141 1   
   149   138   139 1   
   150   136   137 1   
   151   134   135 1   
   152   132   133 1   
   153   130   131 1   
   154   127   128 1   
@<TRIPOS>SUBSTRUCTURE
     1 MGO         1 TEMP              0 ****  ****    0 ROOT
