@<TRIPOS>MOLECULE
Cpptraj
   21    21     1     0     0
SMALL
No Charge or Current Charge


@<TRIPOS>ATOM
      1 C1          23.2530    20.3790    33.0160 C.3        1 MO3       0.115700
      2 H2          24.0020    20.3880    32.2190 H          1 MO3       0.041033
      3 H3          23.3740    21.2750    33.6320 H          1 MO3       0.041033
      4 H4          23.3900    19.4850    33.6300 H          1 MO3       0.041033
      5 O1          21.9310    20.3680    32.4220 O.3        1 MO3      -0.352900
      6 C2          20.7650    20.3560    33.1690 C.ar       1 MO3       0.105100
      7 C3          19.5540    20.3440    32.4780 C.ar       1 MO3      -0.191000
      8 H5          19.5570    20.3440    31.3890 H          1 MO3       0.123000
      9 C4          18.3460    20.3330    33.1710 C.ar       1 MO3      -0.119000
     10 H6          17.4010    20.3240    32.6250 H          1 MO3       0.106000
     11 C5          18.3490    20.3330    34.5640 C.ar       1 MO3      -0.185000
     12 H7          17.4030    20.3210    35.1040 H          1 MO3       0.120000
     13 C6          19.5540    20.3410    35.2700 C.ar       1 MO3       0.014700
     14 C7          20.7600    20.3550    34.5680 C.ar       1 MO3      -0.192000
     15 H8          21.6950    20.3640    35.1230 H          1 MO3       0.196000
     16 C8          19.5540    20.3440    36.7910 C.3        1 MO3      -0.177100
     17 H9          18.6410    20.8220    37.1600 H          1 MO3       0.039200
     18 H10         20.3840    20.9580    37.1550 H          1 MO3       0.039200
     19 C9          19.6700    18.9290    37.3500 C.2        1 MO3       0.918600
     20 O2          18.6610    18.3130    37.6540 O.co2      1 MO3      -0.841800
     21 O3          20.7740    18.4290    37.5020 O.co2      1 MO3      -0.841799
@<TRIPOS>BOND
     1    19    20 1   
     2    19    21 1   
     3    16    19 1   
     4    13    14 ar  
     5    13    16 1   
     6    11    13 ar  
     7     9    11 ar  
     8     7     9 ar  
     9     6     7 ar  
    10     6    14 ar  
    11     5     6 1   
    12     1     5 1   
    13    16    17 1   
    14    16    18 1   
    15    14    15 1   
    16    11    12 1   
    17     9    10 1   
    18     7     8 1   
    19     1     2 1   
    20     1     3 1   
    21     1     4 1   
@<TRIPOS>SUBSTRUCTURE
     1 MO3         1 TEMP              0 ****  ****    0 ROOT
