@<TRIPOS>MOLECULE
Cpptraj
   22    22     1     0     0
SMALL
No Charge or Current Charge


@<TRIPOS>ATOM
      1 C1          18.5400    19.5010    33.6870 C.3        1 CHP      -0.075900
      2 H2          19.2680    19.3070    32.8940 H          1 CHP       0.037950
      3 H3          17.5680    19.1910    33.2950 H          1 CHP       0.037950
      4 C2          18.5120    21.0240    33.9470 C.3        1 CHP      -0.075900
      5 H4          19.5210    21.4320    33.8500 H          1 CHP       0.037950
      6 H5          17.9210    21.4870    33.1520 H          1 CHP       0.037950
      7 C3          17.9150    21.4340    35.3120 C.3        1 CHP      -0.072400
      8 H6          17.0820    20.7850    35.5890 H          1 CHP       0.038450
      9 H7          17.5020    22.4400    35.2040 H          1 CHP       0.038450
     10 C4          18.9850    21.4930    36.4280 C.3        1 CHP      -0.107400
     11 H8          19.8290    22.0910    36.0790 H          1 CHP       0.049700
     12 H9          18.5670    22.0360    37.2800 H          1 CHP       0.049700
     13 C5          19.5170    20.1300    36.9300 C.3        1 CHP       0.142100
     14 H10         20.3910    20.3480    37.5530 H          1 CHP       0.066700
     15 C6          19.9930    19.1530    35.8210 C.3        1 CHP      -0.107400
     16 H11         20.7740    19.6270    35.2180 H          1 CHP       0.049700
     17 H12         20.4670    18.3020    36.3150 H          1 CHP       0.049700
     18 C7          18.8720    18.6080    34.9040 C.3        1 CHP      -0.072400
     19 H13         19.1850    17.6340    34.5200 H          1 CHP       0.038450
     20 H14         17.9630    18.4230    35.4790 H          1 CHP       0.038450
     21 O1          18.5400    19.5010    37.7780 O.3        1 CHP      -0.598800
     22 H1          17.7050    19.3820    37.2470 H          1 CHP       0.397000
@<TRIPOS>BOND
     1    15    18 1   
     2    13    15 1   
     3    13    21 1   
     4    10    13 1   
     5     7    10 1   
     6     4     7 1   
     7     1     4 1   
     8     1    18 1   
     9    21    22 1   
    10    18    19 1   
    11    18    20 1   
    12    15    16 1   
    13    15    17 1   
    14    13    14 1   
    15    10    11 1   
    16    10    12 1   
    17     7     8 1   
    18     7     9 1   
    19     4     5 1   
    20     4     6 1   
    21     1     2 1   
    22     1     3 1   
@<TRIPOS>SUBSTRUCTURE
     1 CHP         1 TEMP              0 ****  ****    0 ROOT
