@<TRIPOS>MOLECULE
Cpptraj
  126   132     1     0     0
SMALL
No Charge or Current Charge


@<TRIPOS>ATOM
      1 C1          23.9940    18.7220    31.4000 C.3        1 MGO       0.304529
      2 H1          24.9760    19.2200    31.5180 H          1 MGO       0.090782
      3 O1          22.9460    19.6820    31.0330 O.3        1 MGO      -0.453070
      4 C2          24.1040    17.6900    30.2830 C.3        1 MGO       0.092199
      5 H2          24.9000    16.9740    30.5120 H          1 MGO       0.102926
      6 O2          24.3950    18.3630    29.0460 O.3        1 MGO      -0.586639
      7 HO2         24.1500    19.2980    29.1220 H          1 MGO       0.425065
      8 C3          22.7850    16.9700    30.0970 C.3        1 MGO       0.093211
      9 H3          22.0320    17.6820    29.7460 H          1 MGO       0.064468
     10 O3          23.0030    15.9470    29.1130 O.3        1 MGO      -0.592567
     11 HO3         23.6080    16.3190    28.4570 H          1 MGO       0.421017
     12 C4          22.3200    16.3300    31.3960 C.3        1 MGO       0.127621
     13 H4          22.9760    15.4900    31.6380 H          1 MGO       0.080661
     14 C5          22.3040    17.3410    32.5570 C.3        1 MGO       0.104343
     15 H5          21.5550    18.1000    32.3200 H          1 MGO       0.068516
     16 O5          23.6250    18.0190    32.6430 O.3        1 MGO      -0.427383
     17 C6          21.9360    16.8070    33.9490 C.3        1 MGO       0.141081
     18 H61         20.8610    16.9100    34.1100 H          1 MGO       0.057384
     19 H62         22.4510    17.3830    34.7220 H          1 MGO       0.057384
     20 O6          22.2870    15.4220    34.0730 O.3        1 MGO      -0.593555
     21 HO6         21.5290    14.8960    33.7840 H          1 MGO       0.422027
     22 C1          22.0430    23.7310    31.3670 C.3        2 MGO       0.304529
     23 H1          22.1060    24.8290    31.4960 H          2 MGO       0.090782
     24 O1          20.6770    23.3070    31.0290 O.3        2 MGO      -0.453070
     25 C2          22.9660    23.3240    30.2250 C.3        2 MGO       0.092199
     26 H2          23.9880    23.6510    30.4340 H          2 MGO       0.102926
     27 O2          22.4990    23.9230    29.0060 O.3        2 MGO      -0.586639
     28 HO2         21.5700    24.1790    29.1050 H          2 MGO       0.425065
     29 C3          22.9240    21.8210    30.0240 C.3        2 MGO       0.093211
     30 H3          21.9230    21.5300    29.6930 H          2 MGO       0.064468
     31 O3          23.8980    21.5090    29.0130 O.3        2 MGO      -0.592567
     32 HO3         23.8610    22.2270    28.3650 H          2 MGO       0.421017
     33 C4          23.2770    21.0840    31.3070 C.3        2 MGO       0.127621
     34 H4          24.3370    21.2300    31.5260 H          2 MGO       0.080661
     35 C5          22.4190    21.5630    32.4940 C.3        2 MGO       0.104343
     36 H5          21.3830    21.2960    32.2770 H          2 MGO       0.068516
     37 O5          22.4940    23.0460    32.5930 O.3        2 MGO      -0.427383
     38 C6          22.7310    20.9630    33.8720 C.3        2 MGO       0.141081
     39 H61         22.1080    20.0820    34.0390 H          2 MGO       0.057384
     40 H62         22.5060    21.6890    34.6580 H          2 MGO       0.057384
     41 O6          24.1070    20.5720    33.9600 O.3        2 MGO      -0.593555
     42 HO6         24.1770    19.6570    33.6590 H          2 MGO       0.422027
     43 C1          16.7310    24.5460    31.4670 C.3        3 MGO       0.304529
     44 H1          15.8150    25.1480    31.6230 H          3 MGO       0.090782
     45 O1          16.4070    23.1570    31.1200 O.3        3 MGO      -0.453070
     46 C2          17.5190    25.1540    30.3130 C.3        3 MGO       0.092199
     47 H2          17.7520    26.2000    30.5280 H          3 MGO       0.102926
     48 O2          16.7380    25.0640    29.1100 O.3        3 MGO      -0.586639
     49 HO2         16.0530    24.3860    29.2170 H          3 MGO       0.425065
     50 C3          18.7930    24.3690    30.0730 C.3        3 MGO       0.093211
     51 H3          18.5380    23.3600    29.7370 H          3 MGO       0.064468
     52 O3          19.5270    25.0660    29.0530 O.3        3 MGO      -0.592567
     53 HO3         18.8730    25.4010    28.4250 H          3 MGO       0.421017
     54 C4          19.6370    24.2910    31.3370 C.3        3 MGO       0.127621
     55 H4          20.0460    25.2810    31.5580 H          3 MGO       0.080661
     56 C5          18.8200    23.7760    32.5370 C.3        3 MGO       0.104343
     57 H5          18.5290    22.7480    32.3160 H          3 MGO       0.068516
     58 O5          17.5760    24.5810    32.6740 O.3        3 MGO      -0.427383
     59 C6          19.5270    23.7300    33.8990 C.3        3 MGO       0.141081
     60 H61         19.9810    22.7480    34.0450 H          3 MGO       0.057384
     61 H62         18.8050    23.8900    34.7030 H          3 MGO       0.057384
     62 O6          20.5560    24.7260    33.9750 O.3        3 MGO      -0.593555
     63 HO6         21.3760    24.3310    33.6500 H          3 MGO       0.422027
     64 C1          13.3700    20.3530    31.5970 C.3        4 MGO       0.304529
     65 H1          12.3930    19.8590    31.7700 H          4 MGO       0.090782
     66 O1          14.4020    19.3810    31.2170 O.3        4 MGO      -0.453070
     67 C2          13.2110    21.3520    30.4570 C.3        4 MGO       0.092199
     68 H2          12.4270    22.0750    30.6980 H          4 MGO       0.102926
     69 O2          12.8710    20.6450    29.2540 O.3        4 MGO      -0.586639
     70 HO2         13.1180    19.7120    29.3450 H          4 MGO       0.425065
     71 C3          14.5220    22.0670    30.1950 C.3        4 MGO       0.093211
     72 H3          15.2590    21.3440    29.8340 H          4 MGO       0.064468
     73 O3          14.2620    23.0600    29.1920 O.3        4 MGO      -0.592567
     74 HO3         13.6310    22.6680    28.5720 H          4 MGO       0.421017
     75 C4          15.0400    22.7430    31.4550 C.3        4 MGO       0.127621
     76 H4          14.3940    23.5900    31.7000 H          4 MGO       0.080661
     77 C5          15.1060    21.7650    32.6430 C.3        4 MGO       0.104343
     78 H5          15.8450    21.0010    32.3970 H          4 MGO       0.068516
     79 O5          13.7910    21.0910    32.8030 O.3        4 MGO      -0.427383
     80 C6          15.5290    22.3400    34.0020 C.3        4 MGO       0.141081
     81 H61         16.6110    22.2430    34.1220 H          4 MGO       0.057384
     82 H62         15.0480    21.7860    34.8110 H          4 MGO       0.057384
     83 O6          15.1850    23.7280    34.1010 O.3        4 MGO      -0.593555
     84 HO6         15.9290    24.2450    33.7650 H          4 MGO       0.422027
     85 C1          15.3210    15.3450    31.6300 C.3        5 MGO       0.304529
     86 H1          15.2650    14.2510    31.7930 H          5 MGO       0.090782
     87 O1          16.6700    15.7580    31.2220 O.3        5 MGO      -0.453070
     88 C2          14.3510    15.7190    30.5150 C.3        5 MGO       0.092199
     89 H2          13.3380    15.3980    30.7770 H          5 MGO       0.102926
     90 O2          14.7670    15.0840    29.2960 O.3        5 MGO      -0.586639
     91 HO2         15.6990    14.8310    29.3640 H          5 MGO       0.425065
     92 C3          14.3820    17.2140    30.2690 C.3        5 MGO       0.093211
     93 H3          15.3680    17.4960    29.8870 H          5 MGO       0.064468
     94 O3          13.3670    17.4960    29.2910 O.3        5 MGO      -0.592567
     95 HO3         13.3770    16.7610    28.6630 H          5 MGO       0.421017
     96 C4          14.0840    17.9890    31.5450 C.3        5 MGO       0.127621
     97 H4          13.0340    17.8490    31.8110 H          5 MGO       0.080661
     98 C5          14.9900    17.5440    32.7070 C.3        5 MGO       0.104343
     99 H5          16.0170    17.8030    32.4410 H          5 MGO       0.068516
    100 O5          14.9200    16.0650    32.8520 O.3        5 MGO      -0.427383
    101 C6          14.7360    18.1830    34.0790 C.3        5 MGO       0.141081
    102 H61         15.3650    19.0700    34.1940 H          5 MGO       0.057384
    103 H62         14.9940    17.4820    34.8750 H          5 MGO       0.057384
    104 O6          13.3650    18.5790    34.2130 O.3        5 MGO      -0.593555
    105 HO6         13.2820    19.4840    33.8890 H          5 MGO       0.422027
    106 C1          20.6330    14.5300    31.5310 C.3        6 MGO       0.304529
    107 H1          21.5550    13.9310    31.6680 H          6 MGO       0.090782
    108 O1          20.9420    15.9080    31.1300 O.3        6 MGO      -0.453070
    109 C2          19.7970    13.8900    30.4290 C.3        6 MGO       0.092199
    110 H2          19.5750    12.8490    30.6850 H          6 MGO       0.102926
    111 O2          20.5280    13.9430    29.1920 O.3        6 MGO      -0.586639
    112 HO2         21.2150    14.6230    29.2510 H          6 MGO       0.425065
    113 C3          18.5140    14.6670    30.2200 C.3        6 MGO       0.093211
    114 H3          18.7550    15.6640    29.8450 H          6 MGO       0.064468
    115 O3          17.7390    13.9400    29.2520 O.3        6 MGO      -0.592567
    116 HO3         18.3660    13.5880    28.6070 H          6 MGO       0.421017
    117 C4          17.7250    14.7820    31.5160 C.3        6 MGO       0.127621
    118 H4          17.3250    13.7990    31.7820 H          6 MGO       0.080661
    119 C5          18.5890    15.3320    32.6640 C.3        6 MGO       0.104343
    120 H5          18.8720    16.3530    32.4010 H          6 MGO       0.068516
    121 O5          19.8380    14.5290    32.7730 O.3        6 MGO      -0.427383
    122 C6          17.9390    15.4180    34.0530 C.3        6 MGO       0.141081
    123 H61         17.4900    16.4040    34.1890 H          6 MGO       0.057384
    124 H62         18.6950    15.2810    34.8300 H          6 MGO       0.057384
    125 O6          16.9160    14.4250    34.2000 O.3        6 MGO      -0.593555
    126 HO6         16.0810    14.8100    33.9000 H          6 MGO       0.422027
@<TRIPOS>BOND
     1    17    20 1   
     2    14    16 1   
     3    14    17 1   
     4    12    14 1   
     5    12   108 1   
     6     8    10 1   
     7     8    12 1   
     8     4     6 1   
     9     4     8 1   
    10     3    33 1   
    11     1     3 1   
    12     1     4 1   
    13     1    16 1   
    14    38    41 1   
    15    35    37 1   
    16    35    38 1   
    17    33    35 1   
    18    29    31 1   
    19    29    33 1   
    20    25    27 1   
    21    25    29 1   
    22    24    54 1   
    23    22    24 1   
    24    22    25 1   
    25    22    37 1   
    26    59    62 1   
    27    56    58 1   
    28    56    59 1   
    29    54    56 1   
    30    50    52 1   
    31    50    54 1   
    32    46    48 1   
    33    46    50 1   
    34    45    75 1   
    35    43    45 1   
    36    43    46 1   
    37    43    58 1   
    38    80    83 1   
    39    77    79 1   
    40    77    80 1   
    41    75    77 1   
    42    71    73 1   
    43    71    75 1   
    44    67    69 1   
    45    67    71 1   
    46    66    96 1   
    47    64    66 1   
    48    64    67 1   
    49    64    79 1   
    50   101   104 1   
    51    98   100 1   
    52    98   101 1   
    53    96    98 1   
    54    92    94 1   
    55    92    96 1   
    56    88    90 1   
    57    88    92 1   
    58    87   117 1   
    59    85    87 1   
    60    85    88 1   
    61    85   100 1   
    62   122   125 1   
    63   119   121 1   
    64   119   122 1   
    65   117   119 1   
    66   113   115 1   
    67   113   117 1   
    68   109   111 1   
    69   109   113 1   
    70   106   108 1   
    71   106   109 1   
    72   106   121 1   
    73    20    21 1   
    74    17    18 1   
    75    17    19 1   
    76    14    15 1   
    77    12    13 1   
    78    10    11 1   
    79     8     9 1   
    80     6     7 1   
    81     4     5 1   
    82     1     2 1   
    83    41    42 1   
    84    38    39 1   
    85    38    40 1   
    86    35    36 1   
    87    33    34 1   
    88    31    32 1   
    89    29    30 1   
    90    27    28 1   
    91    25    26 1   
    92    22    23 1   
    93    62    63 1   
    94    59    60 1   
    95    59    61 1   
    96    56    57 1   
    97    54    55 1   
    98    52    53 1   
    99    50    51 1   
   100    48    49 1   
   101    46    47 1   
   102    43    44 1   
   103    83    84 1   
   104    80    81 1   
   105    80    82 1   
   106    77    78 1   
   107    75    76 1   
   108    73    74 1   
   109    71    72 1   
   110    69    70 1   
   111    67    68 1   
   112    64    65 1   
   113   104   105 1   
   114   101   102 1   
   115   101   103 1   
   116    98    99 1   
   117    96    97 1   
   118    94    95 1   
   119    92    93 1   
   120    90    91 1   
   121    88    89 1   
   122    85    86 1   
   123   125   126 1   
   124   122   123 1   
   125   122   124 1   
   126   119   120 1   
   127   117   118 1   
   128   115   116 1   
   129   113   114 1   
   130   111   112 1   
   131   109   110 1   
   132   106   107 1   
@<TRIPOS>SUBSTRUCTURE
     1 MGO         1 TEMP              0 ****  ****    0 ROOT
