@<TRIPOS>MOLECULE
MCH
   22    22     1     0     0
SMALL
bcc


@<TRIPOS>ATOM
      1 C1         -2.2410    0.7090    3.7130 c3        1 MCH     -0.085100
      2 H2         -3.2040    0.9840    3.2770 hc        1 MCH      0.044033
      3 H3         -2.3990   -0.1510    4.3670 hc        1 MCH      0.044033
      4 H4         -1.8930    1.5470    4.3230 hc        1 MCH      0.044033
      5 C2         -1.2160    0.3780    2.6050 c3        1 MCH      0.154800
      6 C3         -1.7210   -0.8200    1.7580 c3        1 MCH     -0.105400
      7 H5         -2.6870   -0.5540    1.3210 hc        1 MCH      0.051200
      8 H6         -1.9000   -1.6920    2.3940 hc        1 MCH      0.051200
      9 C4         -0.7520   -1.2080    0.6110 c3        1 MCH     -0.078900
     10 H7         -0.0190   -1.9310    0.9750 hc        1 MCH      0.041450
     11 H8         -1.3270   -1.7110   -0.1710 hc        1 MCH      0.041450
     12 C5         -0.0000    0.0000    0.0000 c3        1 MCH     -0.080400
     13 H9          0.1590   -0.1700   -1.0670 hc        1 MCH      0.038700
     14 H10         0.9880    0.0860    0.4580 hc        1 MCH      0.038700
     15 C6         -0.7640    1.3210    0.2160 c3        1 MCH     -0.078900
     16 H11        -0.2310    2.1450   -0.2670 hc        1 MCH      0.041450
     17 H12        -1.7420    1.2480   -0.2680 hc        1 MCH      0.041450
     18 C7         -0.9540    1.6360    1.7200 c3        1 MCH     -0.105400
     19 H13        -0.0710    2.1680    2.0870 hc        1 MCH      0.051200
     20 H14        -1.7870    2.3390    1.8070 hc        1 MCH      0.051200
     21 O1          0.0000    0.0000    3.2730 oh        1 MCH     -0.600800
     22 H1          0.6690   -0.1930    2.5600 ho        1 MCH      0.400001
@<TRIPOS>BOND
     1    1    2 1   
     2    1    3 1   
     3    1    4 1   
     4    1    5 1   
     5    5    6 1   
     6    5   18 1   
     7    5   21 1   
     8    6    7 1   
     9    6    8 1   
    10    6    9 1   
    11    9   10 1   
    12    9   11 1   
    13    9   12 1   
    14   12   13 1   
    15   12   14 1   
    16   12   15 1   
    17   15   16 1   
    18   15   17 1   
    19   15   18 1   
    20   18   19 1   
    21   18   20 1   
    22   21   22 1   
@<TRIPOS>SUBSTRUCTURE
     1 MCH         1 TEMP              0 ****  ****    0 ROOT
