@<TRIPOS>MOLECULE
Cpptraj
  147   154     1     0     0
SMALL
No Charge or Current Charge


@<TRIPOS>ATOM
      1 C1          13.8100    18.2800    34.0860 C.3        1 MGO       0.304529
      2 H1          12.7540    18.5850    33.9560 H          1 MGO       0.090782
      3 O1          14.6750    19.4360    34.3550 O.3        1 MGO      -0.453070
      4 C2          13.8840    17.3250    35.2740 C.3        1 MGO       0.092199
      5 H2          13.2030    16.4850    35.1140 H          1 MGO       0.102926
      6 O2          13.5210    18.0190    36.4790 O.3        1 MGO      -0.586639
      7 HO2         13.5770    18.9790    36.3390 H          1 MGO       0.425065
      8 C3          15.2980    16.8160    35.4660 C.3        1 MGO       0.093211
      9 H3          15.9530    17.6490    35.7370 H          1 MGO       0.064468
     10 O3          15.2450    15.8450    36.5240 O.3        1 MGO      -0.592567
     11 HO3         14.6100    16.1820    37.1700 H          1 MGO       0.421017
     12 C4          15.7950    16.1500    34.1930 C.3        1 MGO       0.127621
     13 H4          15.2020    15.2510    34.0060 H          1 MGO       0.080661
     14 C5          15.6830    17.0980    32.9890 C.3        1 MGO       0.104343
     15 H5          16.3180    17.9650    33.1860 H          1 MGO       0.068516
     16 O5          14.2790    17.5740    32.8770 O.3        1 MGO      -0.427383
     17 C6          16.1310    16.5420    31.6290 C.3        1 MGO       0.141081
     18 H61         17.1970    16.7350    31.4860 H          1 MGO       0.057384
     19 H62         15.5850    17.0380    30.8230 H          1 MGO       0.057384
     20 O6          15.9090    15.1280    31.5600 O.3        1 MGO      -0.593555
     21 HO6         16.7020    14.6820    31.8870 H          1 MGO       0.422027
     22 C1          14.4600    23.6040    33.9520 C.3        2 MGO       0.304529
     23 H1          14.0420    24.6190    33.8010 H          2 MGO       0.090782
     24 O1          15.8990    23.6530    34.2450 O.3        2 MGO      -0.453070
     25 C2          13.7400    22.9670    35.1380 C.3        2 MGO       0.092199
     26 H2          12.6610    22.9740    34.9590 H          2 MGO       0.102926
     27 O2          14.0360    23.7000    36.3370 O.3        2 MGO      -0.586639
     28 HO2         14.8230    24.2540    36.2030 H          2 MGO       0.425065
     29 C3          14.2210    21.5470    35.3570 C.3        2 MGO       0.093211
     30 H3          15.2760    21.5580    35.6450 H          2 MGO       0.064468
     31 O3          13.4110    20.9980    36.4090 O.3        2 MGO      -0.592567
     32 HO3         13.2670    21.7140    37.0440 H          2 MGO       0.421017
     33 C4          14.0320    20.7260    34.0920 C.3        2 MGO       0.127621
     34 H4          12.9620    20.6260    33.8890 H          2 MGO       0.080661
     35 C5          14.7230    21.3880    32.8890 C.3        2 MGO       0.104343
     36 H5          15.7920    21.4350    33.1050 H          2 MGO       0.068516
     37 O5          14.2210    22.7810    32.7500 O.3        2 MGO      -0.427383
     38 C6          14.5900    20.6730    31.5380 C.3        2 MGO       0.141081
     39 H61         15.4080    19.9590    31.4170 H          2 MGO       0.057384
     40 H62         14.6510    21.3980    30.7220 H          2 MGO       0.057384
     41 O6          13.3470    19.9630    31.4570 O.3        2 MGO      -0.593555
     42 HO6         13.4870    19.0700    31.7990 H          2 MGO       0.422027
     43 C1          19.0290    26.4160    33.8550 C.3        3 MGO       0.304529
     44 H1          19.5640    27.3720    33.6990 H          3 MGO       0.090782
     45 O1          19.9590    25.3250    34.1780 O.3        3 MGO      -0.453070
     46 C2          18.0630    26.5970    35.0220 C.3        3 MGO       0.092199
     47 H2          17.3990    27.4420    34.8210 H          3 MGO       0.102926
     48 O2          18.8010    26.8400    36.2300 O.3        3 MGO      -0.586639
     49 HO2         19.7260    26.5680    36.1150 H          3 MGO       0.425065
     50 C3          17.2490    25.3380    35.2460 C.3        3 MGO       0.093211
     51 H3          17.9110    24.5250    35.5560 H          3 MGO       0.064468
     52 O3          16.2970    25.6440    36.2780 O.3        3 MGO      -0.592567
     53 HO3         16.7570    26.2110    36.9120 H          3 MGO       0.421017
     54 C4          16.5100    24.9580    33.9730 C.3        3 MGO       0.127621
     55 H4          15.7690    25.7290    33.7470 H          3 MGO       0.080661
     56 C5          17.4780    24.8130    32.7890 C.3        3 MGO       0.104343
     57 H5          18.1780    24.0100    33.0270 H          3 MGO       0.068516
     58 O5          18.2570    26.0720    32.6450 O.3        3 MGO      -0.427383
     59 C6          16.8590    24.4520    31.4310 C.3        3 MGO       0.141081
     60 H61         16.8120    23.3660    31.3260 H          3 MGO       0.057384
     61 H62         17.4770    24.8450    30.6200 H          3 MGO       0.057384
     62 O6          15.5300    24.9800    31.3210 O.3        3 MGO      -0.593555
     63 HO6         14.9140    24.3180    31.6630 H          3 MGO       0.422027
     64 C1          24.0770    24.5960    33.8670 C.3        4 MGO       0.304529
     65 H1          25.1610    24.7730    33.7270 H          4 MGO       0.090782
     66 O1          23.7990    23.1940    34.2060 O.3        4 MGO      -0.453070
     67 C2          23.5970    25.4820    35.0130 C.3        4 MGO       0.092199
     68 H2          23.8470    26.5250    34.8010 H          4 MGO       0.102926
     69 O2          24.2270    25.0730    36.2390 O.3        4 MGO      -0.586639
     70 HO2         24.5940    24.1790    36.1420 H          4 MGO       0.425065
     71 C3          22.1030    25.3360    35.2140 C.3        4 MGO       0.093211
     72 H3          21.8740    24.3160    35.5360 H          4 MGO       0.064468
     73 O3          21.7300    26.2840    36.2270 O.3        4 MGO      -0.592567
     74 HO3         22.4500    26.2890    36.8730 H          4 MGO       0.421017
     75 C4          21.3640    25.6570    33.9260 C.3        4 MGO       0.127621
     76 H4          21.5090    26.7140    33.6860 H          4 MGO       0.080661
     77 C5          21.8750    24.7940    32.7620 C.3        4 MGO       0.104343
     78 H5          21.6800    23.7480    33.0110 H          4 MGO       0.068516
     79 O5          23.3470    24.9680    32.6400 O.3        4 MGO      -0.427383
     80 C6          21.2290    25.0330    31.3890 C.3        4 MGO       0.141081
     81 H61         20.3520    24.3900    31.2780 H          4 MGO       0.057384
     82 H62         21.9350    24.7830    30.5930 H          4 MGO       0.057384
     83 O6          20.8150    26.3980    31.2520 O.3        4 MGO      -0.593555
     84 HO6         19.9080    26.4730    31.5790 H          4 MGO       0.422027
     85 C1          25.8020    19.5170    33.9800 C.3        5 MGO       0.304529
     86 H1          26.6190    18.7780    33.8640 H          5 MGO       0.090782
     87 O1          24.5280    18.8650    34.3070 O.3        5 MGO      -0.453070
     88 C2          26.1760    20.4610    35.1200 C.3        5 MGO       0.092199
     89 H2          27.1510    20.9130    34.9170 H          5 MGO       0.102926
     90 O2          26.2300    19.7310    36.3560 O.3        5 MGO      -0.586639
     91 HO2         25.7610    18.8860    36.2650 H          5 MGO       0.425065
     92 C3          25.1270    21.5410    35.2880 C.3        5 MGO       0.093211
     93 H3          24.1820    21.0880    35.6010 H          5 MGO       0.064468
     94 O3          25.6190    22.4380    36.2960 O.3        5 MGO      -0.592567
     95 HO3         26.0600    21.8870    36.9580 H          5 MGO       0.421017
     96 C4          24.9400    22.2990    33.9840 C.3        5 MGO       0.127621
     97 H4          25.8590    22.8430    33.7520 H          5 MGO       0.080661
     98 C5          24.6010    21.3450    32.8280 C.3        5 MGO       0.104343
     99 H5          23.6590    20.8490    33.0700 H          5 MGO       0.068516
    100 O5          25.6590    20.3020    32.7380 O.3        5 MGO      -0.427383
    101 C6          24.4090    21.9790    31.4430 C.3        5 MGO       0.141081
    102 H61         23.3620    22.2620    31.3110 H          5 MGO       0.057384
    103 H62         24.6670    21.2610    30.6620 H          5 MGO       0.057384
    104 O6          25.2210    23.1530    31.3030 O.3        5 MGO      -0.593555
    105 HO6         24.7080    23.9120    31.6100 H          5 MGO       0.422027
    106 C1          22.9060    15.0020    34.1100 C.3        6 MGO       0.304529
    107 H1          22.8400    13.9010    34.0090 H          6 MGO       0.090782
    108 O1          21.5960    15.5950    34.4060 O.3        6 MGO      -0.453070
    109 C2          23.8580    15.3150    35.2610 C.3        6 MGO       0.092199
    110 H2          24.8230    14.8320    35.0820 H          6 MGO       0.102926
    111 O2          23.3000    14.8360    36.4960 O.3        6 MGO      -0.586639
    112 HO2         22.3480    14.6740    36.3910 H          6 MGO       0.425065
    113 C3          24.0440    16.8110    35.4120 C.3        6 MGO       0.093211
    114 H3          23.0960    17.2710    35.7020 H          6 MGO       0.064468
    115 O3          25.0360    17.0000    36.4340 O.3        6 MGO      -0.592567
    116 HO3         24.8690    16.3210    37.1030 H          6 MGO       0.421017
    117 C4          24.5430    17.4110    34.1070 C.3        6 MGO       0.127621
    118 H4          25.5450    17.0290    33.8980 H          6 MGO       0.080661
    119 C5          23.6060    17.0640    32.9400 C.3        6 MGO       0.104343
    120 H5          22.6270    17.4940    33.1580 H          6 MGO       0.068516
    121 O5          23.4510    15.5850    32.8690 O.3        6 MGO      -0.427383
    122 C6          24.0050    17.5890    31.5540 C.3        6 MGO       0.141081
    123 H61         23.5760    18.5820    31.4000 H          6 MGO       0.057384
    124 H62         23.6180    16.9280    30.7750 H          6 MGO       0.057384
    125 O6          25.4310    17.6850    31.4370 O.3        6 MGO      -0.593555
    126 HO6         25.6990    18.5650    31.7350 H          6 MGO       0.422027
    127 C1          17.5690    14.4520    34.1570 C.3        7 MGO       0.304529
    128 H1          16.6680    13.8160    34.0500 H          7 MGO       0.090782
    129 O1          17.2120    15.8500    34.4280 O.3        7 MGO      -0.453070
    130 C2          18.3870    13.9190    35.3310 C.3        7 MGO       0.092199
    131 H2          18.6140    12.8620    35.1700 H          7 MGO       0.102926
    132 O2          17.6440    14.0750    36.5500 O.3        7 MGO      -0.586639
    133 HO2         16.9260    14.7150    36.4230 H          7 MGO       0.425065
    134 C3          19.6700    14.7080    35.4910 C.3        7 MGO       0.093211
    135 H3          19.4340    15.7410    35.7630 H          7 MGO       0.064468
    136 O3          20.4190    14.0660    36.5360 O.3        7 MGO      -0.592567
    137 HO3         19.7740    13.7830    37.1980 H          7 MGO       0.421017
    138 C4          20.4740    14.6750    34.2000 C.3        7 MGO       0.127621
    139 H4          20.8020    13.6500    34.0110 H          7 MGO       0.080661
    140 C5          19.6370    15.1730    33.0110 C.3        7 MGO       0.104343
    141 H5          19.3590    16.2110    33.2110 H          7 MGO       0.068516
    142 O5          18.3870    14.3720    32.9310 O.3        7 MGO      -0.427383
    143 C6          20.3210    15.1700    31.6370 C.3        7 MGO       0.141081
    144 H61         20.8310    16.1220    31.4770 H          7 MGO       0.057384
    145 H62         19.5750    15.0490    30.8470 H          7 MGO       0.057384
    146 O6          21.2870    14.1130    31.5510 O.3        7 MGO      -0.593555
    147 HO6         22.1360    14.4560    31.8590 H          7 MGO       0.422027
@<TRIPOS>BOND
     1    17    20 1   
     2    14    16 1   
     3    14    17 1   
     4    12    14 1   
     5    12   129 1   
     6     8    10 1   
     7     8    12 1   
     8     4     6 1   
     9     4     8 1   
    10     3    33 1   
    11     1     3 1   
    12     1     4 1   
    13     1    16 1   
    14    38    41 1   
    15    35    37 1   
    16    35    38 1   
    17    33    35 1   
    18    29    31 1   
    19    29    33 1   
    20    25    27 1   
    21    25    29 1   
    22    24    54 1   
    23    22    24 1   
    24    22    25 1   
    25    22    37 1   
    26    59    62 1   
    27    56    58 1   
    28    56    59 1   
    29    54    56 1   
    30    50    52 1   
    31    50    54 1   
    32    46    48 1   
    33    46    50 1   
    34    45    75 1   
    35    43    45 1   
    36    43    46 1   
    37    43    58 1   
    38    80    83 1   
    39    77    79 1   
    40    77    80 1   
    41    75    77 1   
    42    71    73 1   
    43    71    75 1   
    44    67    69 1   
    45    67    71 1   
    46    66    96 1   
    47    64    66 1   
    48    64    67 1   
    49    64    79 1   
    50   101   104 1   
    51    98   100 1   
    52    98   101 1   
    53    96    98 1   
    54    92    94 1   
    55    92    96 1   
    56    88    90 1   
    57    88    92 1   
    58    87   117 1   
    59    85    87 1   
    60    85    88 1   
    61    85   100 1   
    62   122   125 1   
    63   119   121 1   
    64   119   122 1   
    65   117   119 1   
    66   113   115 1   
    67   113   117 1   
    68   109   111 1   
    69   109   113 1   
    70   108   138 1   
    71   106   108 1   
    72   106   109 1   
    73   106   121 1   
    74   143   146 1   
    75   140   142 1   
    76   140   143 1   
    77   138   140 1   
    78   134   136 1   
    79   134   138 1   
    80   130   132 1   
    81   130   134 1   
    82   127   129 1   
    83   127   130 1   
    84   127   142 1   
    85    20    21 1   
    86    17    18 1   
    87    17    19 1   
    88    14    15 1   
    89    12    13 1   
    90    10    11 1   
    91     8     9 1   
    92     6     7 1   
    93     4     5 1   
    94     1     2 1   
    95    41    42 1   
    96    38    39 1   
    97    38    40 1   
    98    35    36 1   
    99    33    34 1   
   100    31    32 1   
   101    29    30 1   
   102    27    28 1   
   103    25    26 1   
   104    22    23 1   
   105    62    63 1   
   106    59    60 1   
   107    59    61 1   
   108    56    57 1   
   109    54    55 1   
   110    52    53 1   
   111    50    51 1   
   112    48    49 1   
   113    46    47 1   
   114    43    44 1   
   115    83    84 1   
   116    80    81 1   
   117    80    82 1   
   118    77    78 1   
   119    75    76 1   
   120    73    74 1   
   121    71    72 1   
   122    69    70 1   
   123    67    68 1   
   124    64    65 1   
   125   104   105 1   
   126   101   102 1   
   127   101   103 1   
   128    98    99 1   
   129    96    97 1   
   130    94    95 1   
   131    92    93 1   
   132    90    91 1   
   133    88    89 1   
   134    85    86 1   
   135   125   126 1   
   136   122   123 1   
   137   122   124 1   
   138   119   120 1   
   139   117   118 1   
   140   115   116 1   
   141   113   114 1   
   142   111   112 1   
   143   109   110 1   
   144   106   107 1   
   145   146   147 1   
   146   143   144 1   
   147   143   145 1   
   148   140   141 1   
   149   138   139 1   
   150   136   137 1   
   151   134   135 1   
   152   132   133 1   
   153   130   131 1   
   154   127   128 1   
@<TRIPOS>SUBSTRUCTURE
     1 MGO         1 TEMP              0 ****  ****    0 ROOT
