@<TRIPOS>MOLECULE
Cpptraj generated mol2 file.
   20    20     1     0     0
SMALL
USER_CHARGES


@<TRIPOS>ATOM
      1 C1         18.5950   20.4330   38.2300 c          1 MP4      0.923048
      2 O1         17.9230   21.4270   38.4540 o          1 MP4     -0.835894
      3 O2         18.1570   19.3160   38.4540 o          1 MP4     -0.835894
      4 C2         20.0100   20.5890   37.6790 c3         1 MP4     -0.182012
      5 H1         20.6500   19.7800   38.0470 hc         1 MP4      0.034717
      6 H2         20.4570   21.5190   38.0470 hc         1 MP4      0.034717
      7 C3         20.0060   20.5890   36.1590 ca         1 MP4     -0.001299
      8 C4         20.1410   19.3910   35.4530 ca         1 MP4     -0.136434
      9 H3         20.2430   18.4510   35.9930 ha         1 MP4      0.137567
     10 C5         20.1430   19.3920   34.0570 ca         1 MP4     -0.133935
     11 H4         20.2440   18.4540   33.5160 ha         1 MP4      0.107052
     12 C6         20.0130   20.5890   33.3530 ca         1 MP4     -0.128238
     13 C7         19.8770   21.7860   34.0570 ca         1 MP4     -0.133935
     14 H5         19.7720   22.7240   33.5150 ha         1 MP4      0.107052
     15 C8         19.8760   21.7870   35.4520 ca         1 MP4     -0.136434
     16 H6         19.7690   22.7270   35.9930 ha         1 MP4      0.137567
     17 C9         20.0100   20.5890   31.8370 c3         1 MP4     -0.033784
     18 H7         20.4200   21.5230   31.4470 hc         1 MP4      0.025379
     19 H8         20.6150   19.7670   31.4480 hc         1 MP4      0.025379
     20 H9         18.9910   20.4760   31.4620 hc         1 MP4      0.025381
@<TRIPOS>BOND
    1    13    15 1
    2    12    13 1
    3    12    17 1
    4    10    12 1
    5     8    10 1
    6     7     8 1
    7     7    15 1
    8     4     7 1
    9     1     2 1
   10     1     3 1
   11     1     4 1
   12    17    18 1
   13    17    19 1
   14    17    20 1
   15    15    16 1
   16    13    14 1
   17    10    11 1
   18     8     9 1
   19     4     5 1
   20     4     6 1
@<TRIPOS>SUBSTRUCTURE
      1 MP4               1 ****               0 ****  **** 
