@<TRIPOS>MOLECULE
Cpptraj
  147   154     1     0     0
SMALL
No Charge or Current Charge


@<TRIPOS>ATOM
      1 C1          15.3650    16.3110    34.3460 C.3        1 MGO       0.304529
      2 H1          14.2670    16.2400    34.2170 H          1 MGO       0.090782
      3 O1          15.7830    17.6850    34.6490 O.3        1 MGO      -0.453070
      4 C2          15.7640    15.4090    35.5100 C.3        1 MGO       0.092199
      5 H2          15.4100    14.3910    35.3260 H          1 MGO       0.102926
      6 O2          15.1880    15.9070    36.7300 O.3        1 MGO      -0.586639
      7 HO2         14.9120    16.8310    36.6140 H          1 MGO       0.425065
      8 C3          17.2670    15.4090    35.6990 C.3        1 MGO       0.093211
      9 H3          17.5980    16.4090    35.9940 H          1 MGO       0.064468
     10 O3          17.5520    14.4520    36.7330 O.3        1 MGO      -0.592567
     11 HO3         16.8410    14.5360    37.3830 H          1 MGO       0.421017
     12 C4          17.9580    14.9860    34.4130 C.3        1 MGO       0.127621
     13 H4          17.7080    13.9430    34.2010 H          1 MGO       0.080661
     14 C5          17.5260    15.8690    33.2320 C.3        1 MGO       0.104343
     15 H5          17.8270    16.8950    33.4540 H          1 MGO       0.068516
     16 O5          16.0440    15.8390    33.1230 O.3        1 MGO      -0.427383
     17 C6          18.1330    15.5340    31.8610 C.3        1 MGO       0.141081
     18 H61         19.0680    16.0830    31.7300 H          1 MGO       0.057384
     19 H62         17.4490    15.8340    31.0650 H          1 MGO       0.057384
     20 O6          18.4090    14.1310    31.7560 O.3        1 MGO      -0.593555
     21 HO6         19.3060    13.9750    32.0770 H          1 MGO       0.422027
     22 C1          14.1550    21.5370    34.3470 C.3        2 MGO       0.304529
     23 H1          13.4140    22.3520    34.2190 H          2 MGO       0.090782
     24 O1          15.4900    22.0680    34.6500 O.3        2 MGO      -0.453070
     25 C2          13.6980    20.6630    35.5120 C.3        2 MGO       0.092199
     26 H2          12.6810    20.3060    35.3270 H          2 MGO       0.102926
     27 O2          13.7290    21.4230    36.7300 O.3        2 MGO      -0.586639
     28 HO2         14.2800    22.2160    36.6150 H          2 MGO       0.425065
     29 C3          14.6370    19.4890    35.6990 C.3        2 MGO       0.093211
     30 H3          15.6250    19.8520    35.9940 H          2 MGO       0.064468
     31 O3          14.0660    18.6690    36.7320 O.3        2 MGO      -0.592567
     32 HO3         13.6880    19.2770    37.3840 H          2 MGO       0.421017
     33 C4          14.7360    18.6840    34.4130 C.3        2 MGO       0.127621
     34 H4          13.7650    18.2300    34.2010 H          2 MGO       0.080661
     35 C5          15.1560    19.5720    33.2320 C.3        2 MGO       0.104343
     36 H5          16.1460    19.9770    33.4550 H          2 MGO       0.068516
     37 O5          14.2090    20.7140    33.1240 O.3        2 MGO      -0.427383
     38 C6          15.2730    18.8900    31.8620 C.3        2 MGO       0.141081
     39 H61         16.2850    18.5010    31.7290 H          2 MGO       0.057384
     40 H62         15.0810    19.6120    31.0650 H          2 MGO       0.057384
     41 O6          14.3470    17.8000    31.7560 O.3        2 MGO      -0.593555
     42 HO6         14.7850    17.0010    32.0770 H          2 MGO       0.422027
     43 C1          17.4870    25.7430    34.3480 C.3        3 MGO       0.304529
     44 H1          17.6620    26.8290    34.2190 H          3 MGO       0.090782
     45 O1          18.7340    25.0290    34.6500 O.3        3 MGO      -0.453070
     46 C2          16.5200    25.5540    35.5120 C.3        3 MGO       0.092199
     47 H2          15.6060    26.1260    35.3280 H          3 MGO       0.102926
     48 O2          17.1330    26.0040    36.7310 O.3        3 MGO      -0.586639
     49 HO2         18.0950    26.0680    36.6150 H          3 MGO       0.425065
     50 C3          16.1860    24.0880    35.7000 C.3        3 MGO       0.093211
     51 H3          17.0860    23.5420    35.9950 H          3 MGO       0.064468
     52 O3          15.1900    24.0230    36.7330 O.3        3 MGO      -0.592567
     53 HO3         15.4290    24.6980    37.3850 H          3 MGO       0.421017
     54 C4          15.6180    23.5100    34.4140 C.3        3 MGO       0.127621
     55 H4          14.6570    23.9860    34.2020 H          3 MGO       0.080661
     56 C5          16.5740    23.7350    33.2330 C.3        3 MGO       0.104343
     57 H5          17.5080    23.2130    33.4550 H          3 MGO       0.068516
     58 O5          16.8760    25.1870    33.1250 O.3        3 MGO      -0.427383
     59 C6          16.1130    23.2180    31.8630 C.3        3 MGO       0.141081
     60 H61         16.4400    22.1850    31.7300 H          3 MGO       0.057384
     61 H62         16.5570    23.8190    31.0650 H          3 MGO       0.057384
     62 O6          14.6830    23.2620    31.7570 O.3        3 MGO      -0.593555
     63 HO6         14.3320    22.4220    32.0780 H          3 MGO       0.422027
     64 C1          22.8530    25.7600    34.3460 C.3        4 MGO       0.304529
     65 H1          23.8110    26.3000    34.2180 H          4 MGO       0.090782
     66 O1          23.0710    24.3390    34.6490 O.3        4 MGO      -0.453070
     67 C2          22.1010    26.3980    35.5110 C.3        4 MGO       0.092199
     68 H2          21.9800    27.4690    35.3260 H          4 MGO       0.102926
     69 O2          22.8370    26.1990    36.7300 O.3        4 MGO      -0.586639
     70 HO2         23.4870    25.4870    36.6140 H          4 MGO       0.425065
     71 C3          20.7480    25.7460    35.6990 C.3        4 MGO       0.093211
     72 H3          20.8820    24.7010    35.9950 H          4 MGO       0.064468
     73 O3          20.0760    26.4840    36.7320 O.3        4 MGO      -0.592567
     74 HO3         20.7530    26.7180    37.3830 H          4 MGO       0.421017
     75 C4          19.9410    25.8270    34.4140 C.3        4 MGO       0.127621
     76 H4          19.7150    26.8750    34.2010 H          4 MGO       0.080661
     77 C5          20.7130    25.2200    33.2330 C.3        4 MGO       0.104343
     78 H5          20.8870    24.1650    33.4550 H          4 MGO       0.068516
     79 O5          22.0360    25.8900    33.1240 O.3        4 MGO      -0.427383
     80 C6          20.0210    25.2590    31.8620 C.3        4 MGO       0.141081
     81 H61         19.4160    24.3580    31.7300 H          4 MGO       0.057384
     82 H62         20.7680    25.2850    31.0650 H          4 MGO       0.057384
     83 O6          19.1640    26.4030    31.7570 O.3        4 MGO      -0.593555
     84 HO6         18.2880    26.1550    32.0790 H          4 MGO       0.422027
     85 C1          26.2110    21.5750    34.3460 C.3        5 MGO       0.304529
     86 H1          27.2300    21.1630    34.2160 H          5 MGO       0.090782
     87 O1          25.2370    20.5180    34.6490 O.3        5 MGO      -0.453070
     88 C2          26.2420    22.5610    35.5100 C.3        5 MGO       0.092199
     89 H2          27.0040    23.3240    35.3250 H          5 MGO       0.102926
     90 O2          26.5450    21.8630    36.7290 O.3        5 MGO      -0.586639
     91 HO2         26.3930    20.9100    36.6140 H          5 MGO       0.425065
     92 C3          24.8880    23.2120    35.6980 C.3        5 MGO       0.093211
     93 H3          24.1550    22.4560    35.9940 H          5 MGO       0.064468
     94 O3          25.0460    24.1980    36.7320 O.3        5 MGO      -0.592567
     95 HO3         25.6500    23.8150    37.3820 H          5 MGO       0.421017
     96 C4          24.4490    23.8940    34.4130 C.3        5 MGO       0.127621
     97 H4          25.1270    24.7250    34.2000 H          5 MGO       0.080661
     98 C5          24.4540    22.9110    33.2320 C.3        5 MGO       0.104343
     99 H5          23.7390    22.1170    33.4550 H          5 MGO       0.068516
    100 O5          25.8040    22.2940    33.1230 O.3        5 MGO      -0.427383
    101 C6          24.0530    23.4760    31.8610 C.3        5 MGO       0.141081
    102 H61         22.9730    23.3870    31.7290 H          5 MGO       0.057384
    103 H62         24.5390    22.9090    31.0640 H          5 MGO       0.057384
    104 O6          24.4140    24.8590    31.7550 O.3        5 MGO      -0.593555
    105 HO6         23.6730    25.3890    32.0780 H          5 MGO       0.422027
    106 C1          25.0330    16.3400    34.3470 C.3        6 MGO       0.304529
    107 H1          25.3470    15.2860    34.2190 H          6 MGO       0.090782
    108 O1          23.6000    16.4420    34.6490 O.3        6 MGO      -0.453070
    109 C2          25.8230    16.9310    35.5110 C.3        6 MGO       0.092199
    110 H2          26.8950    16.8120    35.3270 H          6 MGO       0.102926
    111 O2          25.4660    16.2590    36.7300 O.3        6 MGO      -0.586639
    112 HO2         24.6270    15.7840    36.6150 H          6 MGO       0.425065
    113 C3          25.4870    18.3960    35.7000 C.3        6 MGO       0.093211
    114 H3          24.4400    18.4970    35.9950 H          6 MGO       0.064468
    115 O3          26.3570    18.8870    36.7330 O.3        6 MGO      -0.592567
    116 HO3         26.4340    18.1750    37.3840 H          6 MGO       0.421017
    117 C4          25.7480    19.1630    34.4130 C.3        6 MGO       0.127621
    118 H4          26.8190    19.1510    34.2010 H          6 MGO       0.080661
    119 C5          24.9830    18.5460    33.2330 C.3        6 MGO       0.104343
    120 H5          23.9170    18.6100    33.4540 H          6 MGO       0.068516
    121 O5          25.3420    17.1060    33.1240 O.3        6 MGO      -0.427383
    122 C6          25.1750    19.2110    31.8620 C.3        6 MGO       0.141081
    123 H61         24.4320    20.0000    31.7290 H          6 MGO       0.057384
    124 H62         25.0350    18.4770    31.0650 H          6 MGO       0.057384
    125 O6          26.4820    19.7920    31.7560 O.3        6 MGO      -0.593555
    126 HO6         26.4340    20.7020    32.0770 H          6 MGO       0.422027
    127 C1          20.2050    13.9970    34.3470 C.3        7 MGO       0.304529
    128 H1          19.5760    13.0950    34.2180 H          7 MGO       0.090782
    129 O1          19.3930    15.1820    34.6490 O.3        7 MGO      -0.453070
    130 C2          21.1600    13.7470    35.5120 C.3        7 MGO       0.092199
    131 H2          21.7340    12.8360    35.3270 H          7 MGO       0.102926
    132 O2          20.4110    13.6090    36.7300 O.3        7 MGO      -0.586639
    133 HO2         19.5170    13.9680    36.6150 H          7 MGO       0.425065
    134 C3          22.0960    14.9230    35.7000 C.3        7 MGO       0.093211
    135 H3          21.5220    15.8060    35.9950 H          7 MGO       0.064468
    136 O3          23.0220    14.5500    36.7340 O.3        7 MGO      -0.592567
    137 HO3         22.5140    14.0460    37.3840 H          7 MGO       0.421017
    138 C4          22.8590    15.2000    34.4140 C.3        7 MGO       0.127621
    139 H4          23.5180    14.3530    34.2020 H          7 MGO       0.080661
    140 C5          21.8990    15.4110    33.2320 C.3        7 MGO       0.104343
    141 H5          21.2840    16.2860    33.4550 H          7 MGO       0.068516
    142 O5          20.9980    14.2340    33.1250 O.3        7 MGO      -0.427383
    143 C6          22.5400    15.6770    31.8620 C.3        7 MGO       0.141081
    144 H61         22.6940    16.7500    31.7290 H          7 MGO       0.057384
    145 H62         21.8790    15.3280    31.0650 H          7 MGO       0.057384
    146 O6          23.8090    15.0160    31.7570 O.3        7 MGO      -0.593555
    147 HO6         24.4900    15.6210    32.0790 H          7 MGO       0.422027
@<TRIPOS>BOND
     1    17    20 1   
     2    14    16 1   
     3    14    17 1   
     4    12    14 1   
     5    12   129 1   
     6     8    10 1   
     7     8    12 1   
     8     4     6 1   
     9     4     8 1   
    10     3    33 1   
    11     1     3 1   
    12     1     4 1   
    13     1    16 1   
    14    38    41 1   
    15    35    37 1   
    16    35    38 1   
    17    33    35 1   
    18    29    31 1   
    19    29    33 1   
    20    25    27 1   
    21    25    29 1   
    22    24    54 1   
    23    22    24 1   
    24    22    25 1   
    25    22    37 1   
    26    59    62 1   
    27    56    58 1   
    28    56    59 1   
    29    54    56 1   
    30    50    52 1   
    31    50    54 1   
    32    46    48 1   
    33    46    50 1   
    34    45    75 1   
    35    43    45 1   
    36    43    46 1   
    37    43    58 1   
    38    80    83 1   
    39    77    79 1   
    40    77    80 1   
    41    75    77 1   
    42    71    73 1   
    43    71    75 1   
    44    67    69 1   
    45    67    71 1   
    46    66    96 1   
    47    64    66 1   
    48    64    67 1   
    49    64    79 1   
    50   101   104 1   
    51    98   100 1   
    52    98   101 1   
    53    96    98 1   
    54    92    94 1   
    55    92    96 1   
    56    88    90 1   
    57    88    92 1   
    58    87   117 1   
    59    85    87 1   
    60    85    88 1   
    61    85   100 1   
    62   122   125 1   
    63   119   121 1   
    64   119   122 1   
    65   117   119 1   
    66   113   115 1   
    67   113   117 1   
    68   109   111 1   
    69   109   113 1   
    70   108   138 1   
    71   106   108 1   
    72   106   109 1   
    73   106   121 1   
    74   143   146 1   
    75   140   142 1   
    76   140   143 1   
    77   138   140 1   
    78   134   136 1   
    79   134   138 1   
    80   130   132 1   
    81   130   134 1   
    82   127   129 1   
    83   127   130 1   
    84   127   142 1   
    85    20    21 1   
    86    17    18 1   
    87    17    19 1   
    88    14    15 1   
    89    12    13 1   
    90    10    11 1   
    91     8     9 1   
    92     6     7 1   
    93     4     5 1   
    94     1     2 1   
    95    41    42 1   
    96    38    39 1   
    97    38    40 1   
    98    35    36 1   
    99    33    34 1   
   100    31    32 1   
   101    29    30 1   
   102    27    28 1   
   103    25    26 1   
   104    22    23 1   
   105    62    63 1   
   106    59    60 1   
   107    59    61 1   
   108    56    57 1   
   109    54    55 1   
   110    52    53 1   
   111    50    51 1   
   112    48    49 1   
   113    46    47 1   
   114    43    44 1   
   115    83    84 1   
   116    80    81 1   
   117    80    82 1   
   118    77    78 1   
   119    75    76 1   
   120    73    74 1   
   121    71    72 1   
   122    69    70 1   
   123    67    68 1   
   124    64    65 1   
   125   104   105 1   
   126   101   102 1   
   127   101   103 1   
   128    98    99 1   
   129    96    97 1   
   130    94    95 1   
   131    92    93 1   
   132    90    91 1   
   133    88    89 1   
   134    85    86 1   
   135   125   126 1   
   136   122   123 1   
   137   122   124 1   
   138   119   120 1   
   139   117   118 1   
   140   115   116 1   
   141   113   114 1   
   142   111   112 1   
   143   109   110 1   
   144   106   107 1   
   145   146   147 1   
   146   143   144 1   
   147   143   145 1   
   148   140   141 1   
   149   138   139 1   
   150   136   137 1   
   151   134   135 1   
   152   132   133 1   
   153   130   131 1   
   154   127   128 1   
@<TRIPOS>SUBSTRUCTURE
     1 MGO         1 TEMP              0 ****  ****    0 ROOT
