@<TRIPOS>MOLECULE
Cpptraj
   26    25     1     0     0
SMALL
No Charge or Current Charge


@<TRIPOS>ATOM
      1 C1          20.7140    19.8930    31.8620 C.3        1 MHA      -0.097075
      2 H3          20.2950    20.3700    30.9740 H          1 MHA       0.043378
      3 H4          21.8020    19.9850    31.8190 H          1 MHA       0.043378
      4 H5          20.4530    18.8330    31.8390 H          1 MHA       0.043378
      5 C2          20.1630    20.5610    33.1360 C.3        1 MHA      -0.079379
      6 H6          19.0730    20.4790    33.1420 H          1 MHA       0.045212
      7 H7          20.4140    21.6240    33.1220 H          1 MHA       0.045212
      8 C3          20.7410    19.9060    34.4070 C.3        1 MHA      -0.081379
      9 H8          20.4890    18.8420    34.4150 H          1 MHA       0.049213
     10 H9          21.8300    19.9870    34.3970 H          1 MHA       0.049213
     11 C4          20.1860    20.5750    35.6840 C.3        1 MHA      -0.079379
     12 H10         19.0960    20.4900    35.6940 H          1 MHA       0.055714
     13 H11         20.4360    21.6390    35.6670 H          1 MHA       0.055714
     14 C5          20.7660    19.9170    36.9560 C.3        1 MHA      -0.109372
     15 H12         20.5480    18.8470    36.9260 H          1 MHA       0.069218
     16 H13         21.8540    20.0260    36.9660 H          1 MHA       0.069218
     17 C6          20.1670    20.5150    38.2500 C.3        1 MHA       0.128533
     18 H14         20.4270    21.5770    38.2990 H          1 MHA       0.111729
     19 C7          18.6370    20.3810    38.2090 C.3        1 MHA      -0.138064
     20 H15         18.3320    19.3320    38.1620 H          1 MHA       0.082721
     21 H16         18.2300    20.8950    37.3340 H          1 MHA       0.082721
     22 H17         18.1840    20.8310    39.0970 H          1 MHA       0.082721
     23 N1          20.7140    19.8930    39.5010 N.4        1 MHA      -0.847381
     24 H1          21.7360    20.0160    39.5720 H          1 MHA       0.458252
     25 H2          20.2970    20.3180    40.3440 H          1 MHA       0.458252
     26 HN11        20.5180    18.8810    39.5350 H          1 MHA       0.458252
@<TRIPOS>BOND
     1    17    19 1   
     2    17    23 1   
     3    14    17 1   
     4    11    14 1   
     5     8    11 1   
     6     5     8 1   
     7     1     5 1   
     8    23    24 1   
     9    23    25 1   
    10    23    26 1   
    11    19    20 1   
    12    19    21 1   
    13    19    22 1   
    14    17    18 1   
    15    14    15 1   
    16    14    16 1   
    17    11    12 1   
    18    11    13 1   
    19     8     9 1   
    20     8    10 1   
    21     5     6 1   
    22     5     7 1   
    23     1     2 1   
    24     1     3 1   
    25     1     4 1   
@<TRIPOS>SUBSTRUCTURE
     1 MHA         1 TEMP              0 ****  ****    0 ROOT
