@<TRIPOS>MOLECULE
Cpptraj generated mol2 file.
   19    18     1     0     0
SMALL
USER_CHARGES


@<TRIPOS>ATOM
      1 C1         20.0070   19.2180   38.7870 c          1 HEX      0.907600
      2 O1         19.9490   18.5890   39.8310 o          1 HEX     -0.853800
      3 O2         20.1200   20.4320   38.8140 o          1 HEX     -0.853800
      4 C2         19.9360   18.4500   37.4620 c3         1 HEX     -0.193400
      5 H1         19.0000   17.8820   37.4240 hc         1 HEX      0.018700
      6 H2         20.7510   17.7190   37.4240 hc         1 HEX      0.018700
      7 C3         20.0200   19.3550   36.2110 c3         1 HEX     -0.065400
      8 H3         19.1990   20.0760   36.2230 hc         1 HEX      0.043200
      9 H4         20.9600   19.9120   36.2230 hc         1 HEX      0.043200
     10 C4         19.9430   18.5200   34.9140 c3         1 HEX     -0.078400
     11 H5         19.0050   17.9580   34.8960 hc         1 HEX      0.025700
     12 H6         20.7610   17.7960   34.8960 hc         1 HEX      0.025700
     13 C5         20.0260   19.4190   33.6630 c3         1 HEX     -0.081400
     14 H7         19.2080   20.1440   33.6750 hc         1 HEX      0.034700
     15 H8         20.9640   19.9810   33.6750 hc         1 HEX      0.034700
     16 C6         19.9490   18.5890   32.3690 c3         1 HEX     -0.088100
     17 H9         19.0070   18.0390   32.3190 hc         1 HEX      0.020700
     18 H10        20.0100   19.2430   31.4970 hc         1 HEX      0.020700
     19 H11        20.7730   17.8740   32.3190 hc         1 HEX      0.020700
@<TRIPOS>BOND
    1    13    16 1
    2    10    13 1
    3     7    10 1
    4     4     7 1
    5     1     2 1
    6     1     3 1
    7     1     4 1
    8    16    17 1
    9    16    18 1
   10    16    19 1
   11    13    14 1
   12    13    15 1
   13    10    11 1
   14    10    12 1
   15     7     8 1
   16     7     9 1
   17     4     5 1
   18     4     6 1
@<TRIPOS>SUBSTRUCTURE
      1 HEX               1 ****               0 ****  **** 
