@<TRIPOS>MOLECULE
Cpptraj generated mol2 file.
  126   132     6     0     0
SMALL
USER_CHARGES


@<TRIPOS>ATOM
      1 C1         16.1230   15.1500   34.4110 c3         1 MGO      0.304529
      2 H1         15.0470   14.9660   34.2270 h2         1 MGO      0.090782
      3 O1         16.3710   16.5410   34.8080 os         1 MGO     -0.453070
      4 C2         16.5830   14.2430   35.5480 c3         1 MGO      0.092199
      5 H2         16.3840   13.1970   35.2950 h1         1 MGO      0.102926
      6 O2         15.8760   14.5980   36.7480 oh         1 MGO     -0.586639
      7 HO2        15.5200   15.4950   36.6610 ho         1 MGO      0.425065
      8 C3         18.0570   14.4480   35.8250 c3         1 MGO      0.093211
      9 H3         18.2160   15.4640   36.1970 h1         1 MGO      0.064468
     10 O3         18.4320   13.4850   36.8230 oh         1 MGO     -0.592567
     11 HO3        17.6860   13.4180   37.4350 ho         1 MGO      0.421017
     12 C4         18.8890   14.2240   34.5700 c3         1 MGO      0.127621
     13 H4         18.8760   13.1610   34.3160 h1         1 MGO      0.080661
     14 C5         18.3690   15.0590   33.3850 c3         1 MGO      0.104343
     15 H5         18.5050   16.1120   33.6420 h1         1 MGO      0.068516
     16 O5         16.9110   14.8180   33.2100 os         1 MGO     -0.427383
     17 C6         19.0650   14.8630   32.0300 c3         1 MGO      0.141081
     18 H61        19.8750   15.5880   31.9250 h1         1 MGO      0.057384
     19 H62        18.3550   15.0290   31.2160 h1         1 MGO      0.057384
     20 O6         19.6150   13.5440   31.9250 oh         1 MGO     -0.593555
     21 HO6        20.5180   13.5690   32.2680 ho         1 MGO      0.422027
     22 C1         14.7070   20.3340   34.4140 c3         2 MGO      0.304529
     23 H1         14.0110   21.1810   34.2530 h2         2 MGO      0.090782
     24 O1         16.0320   20.8040   34.8390 os         2 MGO     -0.453070
     25 C2         14.1410   19.4450   35.5160 c3         2 MGO      0.092199
     26 H2         13.1390   19.1030   35.2420 h1         2 MGO      0.102926
     27 O2         14.0850   20.1920   36.7420 oh         2 MGO     -0.586639
     28 HO2        14.6840   20.9530   36.6870 ho         2 MGO      0.425065
     29 C3         15.0550   18.2620   35.7600 c3         2 MGO      0.093211
     30 H3         16.0110   18.6190   36.1520 h1         2 MGO      0.064468
     31 O3         14.4010   17.4200   36.7240 oh         2 MGO     -0.592567
     32 HO3        13.9640   18.0120   37.3530 ho         2 MGO      0.421017
     33 C4         15.2880   17.4730   34.4790 c3         2 MGO      0.127621
     34 H4         14.3640   16.9620   34.1990 h1         2 MGO      0.080661
     35 C5         15.7610   18.3820   33.3280 c3         2 MGO      0.104343
     36 H5         16.7380   18.7820   33.6080 h1         2 MGO      0.068516
     37 O5         14.8240   19.5290   33.1850 os         2 MGO     -0.427383
     38 C6         15.9510   17.7290   31.9520 c3         2 MGO      0.141081
     39 H61        16.9840   17.3930   31.8430 h1         2 MGO      0.057384
     40 H62        15.7460   18.4540   31.1600 h1         2 MGO      0.057384
     41 O6         15.0850   16.5970   31.8000 oh         2 MGO     -0.593555
     42 HO6        15.5550   15.8150   32.1210 ho         2 MGO      0.422027
     43 C1         18.4860   24.1540   34.5820 c3         3 MGO      0.304529
     44 H1         18.8710   25.1840   34.4600 h2         3 MGO      0.090782
     45 O1         19.5510   23.2270   34.9840 os         3 MGO     -0.453070
     46 C2         17.4230   24.1600   35.6750 c3         3 MGO      0.092199
     47 H2         16.6270   24.8640   35.4190 h1         3 MGO      0.102926
     48 O2         18.0300   24.5400   36.9210 oh         3 MGO     -0.586639
     49 HO2        18.9890   24.4040   36.8690 ho         3 MGO      0.425065
     50 C3         16.8540   22.7690   35.8660 c3         3 MGO      0.093211
     51 H3         17.6380   22.1070   36.2430 h1         3 MGO      0.064468
     52 O3         15.7900   22.8810   36.8260 oh         3 MGO     -0.592567
     53 HO3        16.0780   23.5330   37.4800 ho         3 MGO      0.421017
     54 C4         16.3000   22.2170   34.5610 c3         3 MGO      0.127621
     55 H4         15.3970   22.7710   34.2910 h1         3 MGO      0.080661
     56 C5         17.3330   22.3030   33.4210 c3         3 MGO      0.104343
     57 H5         18.1650   21.6470   33.6860 h1         3 MGO      0.068516
     58 O5         17.8580   23.6910   33.3300 os         3 MGO     -0.427383
     59 C6         16.8750   21.8590   32.0250 c3         3 MGO      0.141081
     60 H61        17.1030   20.8010   31.8810 h1         3 MGO      0.057384
     61 H62        17.4060   22.4260   31.2570 h1         3 MGO      0.057384
     62 O6         15.4620   22.0470   31.8660 oh         3 MGO     -0.593555
     63 HO6        15.0200   21.2390   32.1560 ho         3 MGO      0.422027
     64 C1         23.6820   22.7880   34.7480 c3         4 MGO      0.304529
     65 H1         24.7690   22.9740   34.6420 h2         4 MGO      0.090782
     66 O1         23.4090   21.3880   35.0980 os         4 MGO     -0.453070
     67 C2         23.1460   23.6730   35.8680 c3         4 MGO      0.092199
     68 H2         23.3600   24.7230   35.6500 h1         4 MGO      0.102926
     69 O2         23.7680   23.2940   37.1060 oh         4 MGO     -0.586639
     70 HO2        24.1300   22.3980   37.0270 ho         4 MGO      0.425065
     71 C3         21.6550   23.4630   36.0390 c3         4 MGO      0.093211
     72 H3         21.4720   22.4390   36.3790 h1         4 MGO      0.064468
     73 O3         21.2120   24.4050   37.0280 oh         4 MGO     -0.592567
     74 HO3        21.9140   24.4600   37.6910 ho         4 MGO      0.421017
     75 C4         20.9120   23.7120   34.7350 c3         4 MGO      0.127621
     76 H4         20.9410   24.7790   34.5030 h1         4 MGO      0.080661
     77 C5         21.5120   22.9000   33.5720 c3         4 MGO      0.104343
     78 H5         21.3600   21.8430   33.7980 h1         4 MGO      0.068516
     79 O5         22.9780   23.1430   33.5020 os         4 MGO     -0.427383
     80 C6         20.9120   23.1240   32.1770 c3         4 MGO      0.141081
     81 H61        20.1100   22.4030   32.0000 h1         4 MGO      0.057384
     82 H62        21.6750   22.9740   31.4100 h1         4 MGO      0.057384
     83 O6         20.3690   24.4450   32.0590 oh         4 MGO     -0.593555
     84 HO6        19.4440   24.4140   32.3400 ho         4 MGO      0.422027
     85 C1         25.0990   17.6030   34.7440 c3         5 MGO      0.304529
     86 H1         25.8040   16.7590   34.6140 h2         5 MGO      0.090782
     87 O1         23.7470   17.1270   35.0670 os         5 MGO     -0.453070
     88 C2         25.5870   18.4690   35.9000 c3         5 MGO      0.092199
     89 H2         26.6050   18.8170   35.7020 h1         5 MGO      0.102926
     90 O2         25.5590   17.6980   37.1120 oh         5 MGO     -0.586639
     91 HO2        24.9660   16.9400   37.0000 ho         5 MGO      0.425065
     92 C3         24.6580   19.6490   36.1040 c3         5 MGO      0.093211
     93 H3         23.6770   19.2840   36.4230 h1         5 MGO      0.064468
     94 O3         25.2440   20.4690   37.1280 oh         5 MGO     -0.592567
     95 HO3        25.6360   19.8660   37.7730 ho         5 MGO      0.421017
     96 C4         24.5130   20.4630   34.8260 c3         5 MGO      0.127621
     97 H4         25.4530   20.9790   34.6210 h1         5 MGO      0.080661
     98 C5         24.1200   19.5780   33.6280 c3         5 MGO      0.104343
     99 H5         23.1270   19.1730   33.8320 h1         5 MGO      0.068516
    100 O5         25.0650   18.4340   33.5260 os         5 MGO     -0.427383
    101 C6         24.0260   20.2580   32.2550 c3         5 MGO      0.141081
    102 H61        23.0010   20.5960   32.0820 h1         5 MGO      0.057384
    103 H62        24.2840   19.5500   31.4650 h1         5 MGO      0.057384
    104 O6         24.8980   21.3930   32.1850 oh         5 MGO     -0.593555
    105 HO6        24.4070   22.1670   32.4890 ho         5 MGO      0.422027
    106 C1         21.3190   13.7840   34.5760 c3         6 MGO      0.304529
    107 H1         20.9440   12.7550   34.4060 h2         6 MGO      0.090782
    108 O1         20.2290   14.7030   34.9220 os         6 MGO     -0.453070
    109 C2         22.3050   13.7550   35.7390 c3         6 MGO      0.092199
    110 H2         23.1170   13.0550   35.5240 h1         6 MGO      0.102926
    111 O2         21.6130   13.3510   36.9320 oh         6 MGO     -0.586639
    112 HO2        20.6610   13.4880   36.8170 ho         6 MGO      0.425065
    113 C3         22.8590   15.1410   35.9970 c3         6 MGO      0.093211
    114 H3         22.0490   15.7960   36.3320 h1         6 MGO      0.064468
    115 O3         23.8540   15.0090   37.0240 oh         6 MGO     -0.592567
    116 HO3        23.5220   14.3450   37.6440 ho         6 MGO      0.421017
    117 C4         23.5000   15.7190   34.7430 c3         6 MGO      0.127621
    118 H4         24.4210   15.1690   34.5260 h1         6 MGO      0.080661
    119 C5         22.5490   15.6570   33.5350 c3         6 MGO      0.104343
    120 H5         21.6990   16.3070   33.7540 h1         6 MGO      0.068516
    121 O5         22.0320   14.2710   33.3800 os         6 MGO     -0.427383
    122 C6         23.1010   16.1280   32.1820 c3         6 MGO      0.141081
    123 H61        22.8820   17.1900   32.0440 h1         6 MGO      0.057384
    124 H62        22.6240   15.5770   31.3680 h1         6 MGO      0.057384
    125 O6         24.5210   15.9420   32.1170 oh         6 MGO     -0.593555
    126 HO6        24.9430   16.7440   32.4530 ho         6 MGO      0.422027
@<TRIPOS>BOND
    1    17    20 1
    2    14    16 1
    3    14    17 1
    4    12    14 1
    5    12   108 1
    6     8    10 1
    7     8    12 1
    8     4     6 1
    9     4     8 1
   10     3    33 1
   11     1     3 1
   12     1     4 1
   13     1    16 1
   14    38    41 1
   15    35    37 1
   16    35    38 1
   17    33    35 1
   18    29    31 1
   19    29    33 1
   20    25    27 1
   21    25    29 1
   22    24    54 1
   23    22    24 1
   24    22    25 1
   25    22    37 1
   26    59    62 1
   27    56    58 1
   28    56    59 1
   29    54    56 1
   30    50    52 1
   31    50    54 1
   32    46    48 1
   33    46    50 1
   34    45    75 1
   35    43    45 1
   36    43    46 1
   37    43    58 1
   38    80    83 1
   39    77    79 1
   40    77    80 1
   41    75    77 1
   42    71    73 1
   43    71    75 1
   44    67    69 1
   45    67    71 1
   46    66    96 1
   47    64    66 1
   48    64    67 1
   49    64    79 1
   50   101   104 1
   51    98   100 1
   52    98   101 1
   53    96    98 1
   54    92    94 1
   55    92    96 1
   56    88    90 1
   57    88    92 1
   58    87   117 1
   59    85    87 1
   60    85    88 1
   61    85   100 1
   62   122   125 1
   63   119   121 1
   64   119   122 1
   65   117   119 1
   66   113   115 1
   67   113   117 1
   68   109   111 1
   69   109   113 1
   70   106   108 1
   71   106   109 1
   72   106   121 1
   73    20    21 1
   74    17    18 1
   75    17    19 1
   76    14    15 1
   77    12    13 1
   78    10    11 1
   79     8     9 1
   80     6     7 1
   81     4     5 1
   82     1     2 1
   83    41    42 1
   84    38    39 1
   85    38    40 1
   86    35    36 1
   87    33    34 1
   88    31    32 1
   89    29    30 1
   90    27    28 1
   91    25    26 1
   92    22    23 1
   93    62    63 1
   94    59    60 1
   95    59    61 1
   96    56    57 1
   97    54    55 1
   98    52    53 1
   99    50    51 1
  100    48    49 1
  101    46    47 1
  102    43    44 1
  103    83    84 1
  104    80    81 1
  105    80    82 1
  106    77    78 1
  107    75    76 1
  108    73    74 1
  109    71    72 1
  110    69    70 1
  111    67    68 1
  112    64    65 1
  113   104   105 1
  114   101   102 1
  115   101   103 1
  116    98    99 1
  117    96    97 1
  118    94    95 1
  119    92    93 1
  120    90    91 1
  121    88    89 1
  122    85    86 1
  123   125   126 1
  124   122   123 1
  125   122   124 1
  126   119   120 1
  127   117   118 1
  128   115   116 1
  129   113   114 1
  130   111   112 1
  131   109   110 1
  132   106   107 1
@<TRIPOS>SUBSTRUCTURE
      1 MGO               1 ****               0 ****  **** 
      2 MGO              22 ****               0 ****  **** 
      3 MGO              43 ****               0 ****  **** 
      4 MGO              64 ****               0 ****  **** 
      5 MGO              85 ****               0 ****  **** 
      6 MGO             106 ****               0 ****  **** 
