@<TRIPOS>MOLECULE
Cpptraj generated mol2 file.
   17    16     1     0     0
SMALL
USER_CHARGES


@<TRIPOS>ATOM
      1 C1         18.3610   19.2820   38.4640 c          1 HX2      0.891800
      2 O1         18.1440   20.4020   38.8900 o          1 HX2     -0.843800
      3 O2         18.2880   18.3000   39.1790 o          1 HX2     -0.843800
      4 C2         18.7270   19.0820   37.0340 ce         1 HX2     -0.194200
      5 H1         18.9020   18.0480   36.7390 ha         1 HX2      0.094000
      6 C3         18.8430   20.0770   36.1300 c2         1 HX2     -0.220200
      7 H2         18.6690   21.1140   36.4130 ha         1 HX2      0.133000
      8 C4         19.2170   19.8400   34.6810 c3         1 HX2     -0.034200
      9 H3         19.9400   19.0240   34.6120 hc         1 HX2      0.023700
     10 H4         19.7040   20.7340   34.2850 hc         1 HX2      0.023700
     11 C5         17.9780   19.5090   33.8220 c3         1 HX2     -0.079400
     12 H5         17.4900   18.6100   34.2080 hc         1 HX2      0.039200
     13 H6         17.2580   20.3280   33.8840 hc         1 HX2      0.039200
     14 C6         18.3610   19.2820   32.3470 c3         1 HX2     -0.089100
     15 H7         19.0620   18.4480   32.2540 hc         1 HX2      0.020033
     16 H8         17.4720   19.0490   31.7580 hc         1 HX2      0.020033
     17 H9         18.8270   20.1760   31.9270 hc         1 HX2      0.020034
@<TRIPOS>BOND
    1    11    14 1
    2     8    11 1
    3     6     8 1
    4     4     6 1
    5     1     2 1
    6     1     3 1
    7     1     4 1
    8    14    15 1
    9    14    16 1
   10    14    17 1
   11    11    12 1
   12    11    13 1
   13     8     9 1
   14     8    10 1
   15     6     7 1
   16     4     5 1
@<TRIPOS>SUBSTRUCTURE
      1 HX2               1 ****               0 ****  **** 
