@<TRIPOS>MOLECULE
Cpptraj
  126   132     1     0     0
SMALL
No Charge or Current Charge


@<TRIPOS>ATOM
      1 C1          23.6450    17.4120    33.6140 C.3        1 MGO       0.304529
      2 H1          24.7210    17.6500    33.7300 H          1 MGO       0.090782
      3 O1          22.8590    18.6140    33.3110 O.3        1 MGO      -0.453070
      4 C2          23.4860    16.4350    32.4540 C.3        1 MGO       0.092199
      5 H2          24.0850    15.5380    32.6360 H          1 MGO       0.102926
      6 O2          23.9160    17.0720    31.2390 O.3        1 MGO      -0.586639
      7 HO2         23.9100    18.0340    31.3580 H          1 MGO       0.425065
      8 C3          22.0280    16.0680    32.2680 C.3        1 MGO       0.093211
      9 H3          21.4690    16.9560    31.9640 H          1 MGO       0.064468
     10 O3          21.9780    15.0670    31.2390 O.3        1 MGO      -0.592567
     11 HO3         22.6480    15.3110    30.5850 H          1 MGO       0.421017
     12 C4          21.4360    15.5020    33.5510 C.3        1 MGO       0.127621
     13 H4          21.8710    14.5170    33.7440 H          1 MGO       0.080661
     14 C5          21.6820    16.4340    34.7520 C.3        1 MGO       0.104343
     15 H5          21.1380    17.3620    34.5630 H          1 MGO       0.068516
     16 O5          23.1300    16.7650    34.8350 O.3        1 MGO      -0.427383
     17 C6          21.2120    15.9430    36.1290 C.3        1 MGO       0.141081
     18 H61         20.1970    16.2980    36.3190 H          1 MGO       0.057384
     19 H62         21.8610    16.3420    36.9130 H          1 MGO       0.057384
     20 O6          21.2140    14.5110    36.1890 O.3        1 MGO      -0.593555
     21 HO6         20.3480    14.1980    35.8960 H          1 MGO       0.422027
     22 C1          22.9780    22.7400    33.8300 C.3        2 MGO       0.304529
     23 H1          23.3090    23.7840    34.0020 H          2 MGO       0.090782
     24 O1          21.5470    22.6790    33.5050 O.3        2 MGO      -0.453070
     25 C2          23.7590    22.1720    32.6510 C.3        2 MGO       0.092199
     26 H2          24.8330    22.2320    32.8510 H          2 MGO       0.102926
     27 O2          23.4390    22.9220    31.4680 O.3        2 MGO      -0.586639
     28 HO2         22.6020    23.3930    31.5990 H          2 MGO       0.425065
     29 C3          23.3490    20.7370    32.3900 C.3        2 MGO       0.093211
     30 H3          22.3040    20.7130    32.0700 H          2 MGO       0.064468
     31 O3          24.2040    20.2420    31.3460 O.3        2 MGO      -0.592567
     32 HO3         24.3370    20.9760    30.7280 H          2 MGO       0.421017
     33 C4          23.5260    19.8790    33.6340 C.3        2 MGO       0.127621
     34 H4          24.5930    19.7520    33.8340 H          2 MGO       0.080661
     35 C5          22.8260    20.4990    34.8580 C.3        2 MGO       0.104343
     36 H5          21.7530    20.5030    34.6550 H          2 MGO       0.068516
     37 O5          23.2640    21.9120    35.0160 O.3        2 MGO      -0.427383
     38 C6          22.9980    19.7790    36.2040 C.3        2 MGO       0.141081
     39 H61         22.1810    19.0700    36.3490 H          2 MGO       0.057384
     40 H62         22.9680    20.5020    37.0230 H          2 MGO       0.057384
     41 O6          24.2380    19.0610    36.2440 O.3        2 MGO      -0.593555
     42 HO6         24.0790    18.1700    35.9050 H          2 MGO       0.422027
     43 C1          18.0280    24.8220    34.0830 C.3        3 MGO       0.304529
     44 H1          17.2900    25.6220    34.2850 H          3 MGO       0.090782
     45 O1          17.3700    23.5710    33.6870 O.3        3 MGO      -0.453070
     46 C2          18.9270    25.2700    32.9370 C.3        3 MGO       0.092199
     47 H2          19.4120    26.2180    33.1890 H          3 MGO       0.102926
     48 O2          18.1340    25.4280    31.7490 O.3        3 MGO      -0.586639
     49 HO2         17.3060    24.9340    31.8450 H          3 MGO       0.425065
     50 C3          19.9690    24.2110    32.6370 C.3        3 MGO       0.093211
     51 H3          19.4700    23.3110    32.2650 H          3 MGO       0.064468
     52 O3          20.8380    24.7530    31.6290 O.3        3 MGO      -0.592567
     53 HO3         20.2780    25.2650    31.0300 H          3 MGO       0.421017
     54 C4          20.7830    23.8720    33.8770 C.3        3 MGO       0.127621
     55 H4          21.4230    24.7210    34.1290 H          3 MGO       0.080661
     56 C5          19.8790    23.5180    35.0730 C.3        3 MGO       0.104343
     57 H5          19.3420    22.6030    34.8170 H          3 MGO       0.068516
     58 O5          18.8720    24.5950    35.2710 O.3        3 MGO      -0.427383
     59 C6          20.5690    23.2400    36.4160 C.3        3 MGO       0.141081
     60 H61         20.7720    22.1710    36.5110 H          3 MGO       0.057384
     61 H62         19.9180    23.5350    37.2410 H          3 MGO       0.057384
     62 O6          21.8110    23.9500    36.5080 O.3        3 MGO      -0.593555
     63 HO6         22.5060    23.3830    36.1500 H          3 MGO       0.422027
     64 C1          13.7460    21.5740    34.1190 C.3        4 MGO       0.304529
     65 H1          12.6800    21.3260    34.2930 H          4 MGO       0.090782
     66 O1          14.5050    20.3980    33.6750 O.3        4 MGO      -0.453070
     67 C2          13.8230    22.6330    33.0240 C.3        4 MGO       0.092199
     68 H2          13.2410    23.5120    33.3120 H          4 MGO       0.102926
     69 O2          13.3060    22.0840    31.8010 O.3        4 MGO      -0.586639
     70 HO2         13.3180    21.1150    31.8490 H          4 MGO       0.425065
     71 C3          15.2650    23.0160    32.7610 C.3        4 MGO       0.093211
     72 H3          15.7990    22.1520    32.3540 H          4 MGO       0.064468
     73 O3          15.2450    24.0870    31.8050 O.3        4 MGO      -0.592567
     74 HO3         14.5290    23.8900    31.1850 H          4 MGO       0.421017
     75 C4          15.9480    23.4890    34.0360 C.3        4 MGO       0.127621
     76 H4          15.5320    24.4550    34.3300 H          4 MGO       0.080661
     77 C5          15.7870    22.4720    35.1810 C.3        4 MGO       0.104343
     78 H5          16.3130    21.5620    34.8870 H          4 MGO       0.068516
     79 O5          14.3480    22.1320    35.3440 O.3        4 MGO      -0.427383
     80 C6          16.3550    22.8640    36.5530 C.3        4 MGO       0.141081
     81 H61         17.3810    22.5000    36.6440 H          4 MGO       0.057384
     82 H62         15.7630    22.4090    37.3500 H          4 MGO       0.057384
     83 O6          16.3610    24.2880    36.7160 O.3        4 MGO      -0.593555
     84 HO6         17.2050    24.6220    36.3840 H          4 MGO       0.422027
     85 C1          14.4120    16.2450    33.9030 C.3        5 MGO       0.304529
     86 H1          14.0920    15.1910    34.0230 H          5 MGO       0.090782
     87 O1          15.8160    16.3350    33.4820 O.3        5 MGO      -0.453070
     88 C2          13.5500    16.8940    32.8260 C.3        5 MGO       0.092199
     89 H2          12.4930    16.8190    33.0980 H          5 MGO       0.102926
     90 O2          13.7830    16.2320    31.5730 O.3        5 MGO      -0.586639
     91 HO2         14.6260    15.7560    31.6100 H          5 MGO       0.425065
     92 C3          13.9430    18.3460    32.6400 C.3        5 MGO       0.093211
     93 H3          14.9640    18.3950    32.2490 H          5 MGO       0.064468
     94 O3          13.0180    18.9120    31.6980 O.3        5 MGO      -0.592567
     95 HO3         12.8400    18.2250    31.0420 H          5 MGO       0.421017
     96 C4          13.8590    19.1120    33.9530 C.3        5 MGO       0.127621
     97 H4          12.8100    19.2210    34.2370 H          5 MGO       0.080661
     98 C5          14.6430    18.4070    35.0760 C.3        5 MGO       0.104343
     99 H5          15.6980    18.4210    34.7970 H          5 MGO       0.068516
    100 O5          14.2140    16.9860    35.1630 O.3        5 MGO      -0.427383
    101 C6          14.5690    19.0280    36.4780 C.3        5 MGO       0.141081
    102 H61         15.3970    19.7270    36.6150 H          5 MGO       0.057384
    103 H62         14.6570    18.2490    37.2400 H          5 MGO       0.057384
    104 O6          13.3370    19.7380    36.6590 O.3        5 MGO      -0.593555
    105 HO6         13.4750    20.6500    36.3740 H          5 MGO       0.422027
    106 C1          19.3620    14.1640    33.6510 C.3        6 MGO       0.304529
    107 H1          20.1120    13.3530    33.7410 H          6 MGO       0.090782
    108 O1          19.9940    15.4420    33.2990 O.3        6 MGO      -0.453070
    109 C2          18.3820    13.7970    32.5420 C.3        6 MGO       0.092199
    110 H2          17.9150    12.8320    32.7600 H          6 MGO       0.102926
    111 O2          19.0880    13.7270    31.2930 O.3        6 MGO      -0.586639
    112 HO2         19.9220    14.2160    31.3640 H          6 MGO       0.425065
    113 C3          17.3250    14.8720    32.3940 C.3        6 MGO       0.093211
    114 H3          17.7990    15.7980    32.0540 H          6 MGO       0.064468
    115 O3          16.3840    14.4010    31.4160 O.3        6 MGO      -0.592567
    116 HO3         16.8990    13.9360    30.7420 H          6 MGO       0.421017
    117 C4          16.6030    15.1190    33.7110 C.3        6 MGO       0.127621
    118 H4          15.9790    14.2520    33.9460 H          6 MGO       0.080661
    119 C5          17.5900    15.3880    34.8610 C.3        6 MGO       0.104343
    120 H5          18.1110    16.3210    34.6340 H          6 MGO       0.068516
    121 O5          18.6060    14.3020    34.9090 O.3        6 MGO      -0.427383
    122 C6          16.9980    15.5680    36.2670 C.3        6 MGO       0.141081
    123 H61         16.8060    16.6270    36.4530 H          6 MGO       0.057384
    124 H62         17.7060    15.2160    37.0210 H          6 MGO       0.057384
    125 O6          15.7640    14.8490    36.3970 O.3        6 MGO      -0.593555
    126 HO6         15.0460    15.4390    36.1300 H          6 MGO       0.422027
@<TRIPOS>BOND
     1    17    20 1   
     2    14    16 1   
     3    14    17 1   
     4    12    14 1   
     5    12   108 1   
     6     8    10 1   
     7     8    12 1   
     8     4     6 1   
     9     4     8 1   
    10     3    33 1   
    11     1     3 1   
    12     1     4 1   
    13     1    16 1   
    14    38    41 1   
    15    35    37 1   
    16    35    38 1   
    17    33    35 1   
    18    29    31 1   
    19    29    33 1   
    20    25    27 1   
    21    25    29 1   
    22    24    54 1   
    23    22    24 1   
    24    22    25 1   
    25    22    37 1   
    26    59    62 1   
    27    56    58 1   
    28    56    59 1   
    29    54    56 1   
    30    50    52 1   
    31    50    54 1   
    32    46    48 1   
    33    46    50 1   
    34    45    75 1   
    35    43    45 1   
    36    43    46 1   
    37    43    58 1   
    38    80    83 1   
    39    77    79 1   
    40    77    80 1   
    41    75    77 1   
    42    71    73 1   
    43    71    75 1   
    44    67    69 1   
    45    67    71 1   
    46    66    96 1   
    47    64    66 1   
    48    64    67 1   
    49    64    79 1   
    50   101   104 1   
    51    98   100 1   
    52    98   101 1   
    53    96    98 1   
    54    92    94 1   
    55    92    96 1   
    56    88    90 1   
    57    88    92 1   
    58    87   117 1   
    59    85    87 1   
    60    85    88 1   
    61    85   100 1   
    62   122   125 1   
    63   119   121 1   
    64   119   122 1   
    65   117   119 1   
    66   113   115 1   
    67   113   117 1   
    68   109   111 1   
    69   109   113 1   
    70   106   108 1   
    71   106   109 1   
    72   106   121 1   
    73    20    21 1   
    74    17    18 1   
    75    17    19 1   
    76    14    15 1   
    77    12    13 1   
    78    10    11 1   
    79     8     9 1   
    80     6     7 1   
    81     4     5 1   
    82     1     2 1   
    83    41    42 1   
    84    38    39 1   
    85    38    40 1   
    86    35    36 1   
    87    33    34 1   
    88    31    32 1   
    89    29    30 1   
    90    27    28 1   
    91    25    26 1   
    92    22    23 1   
    93    62    63 1   
    94    59    60 1   
    95    59    61 1   
    96    56    57 1   
    97    54    55 1   
    98    52    53 1   
    99    50    51 1   
   100    48    49 1   
   101    46    47 1   
   102    43    44 1   
   103    83    84 1   
   104    80    81 1   
   105    80    82 1   
   106    77    78 1   
   107    75    76 1   
   108    73    74 1   
   109    71    72 1   
   110    69    70 1   
   111    67    68 1   
   112    64    65 1   
   113   104   105 1   
   114   101   102 1   
   115   101   103 1   
   116    98    99 1   
   117    96    97 1   
   118    94    95 1   
   119    92    93 1   
   120    90    91 1   
   121    88    89 1   
   122    85    86 1   
   123   125   126 1   
   124   122   123 1   
   125   122   124 1   
   126   119   120 1   
   127   117   118 1   
   128   115   116 1   
   129   113   114 1   
   130   111   112 1   
   131   109   110 1   
   132   106   107 1   
@<TRIPOS>SUBSTRUCTURE
     1 MGO         1 TEMP              0 ****  ****    0 ROOT
