@<TRIPOS>MOLECULE
Cpptraj
   25    25     1     0     0
SMALL
No Charge or Current Charge


@<TRIPOS>ATOM
      1 C1          19.8050    19.9580    32.7620 C.3        1 COC      -0.075433
      2 H2          18.9350    20.0090    33.4190 H          1 COC       0.040182
      3 H3          19.3960    19.9810    31.7490 H          1 COC       0.040182
      4 C2          20.5330    18.6030    32.9260 C.3        1 COC      -0.071931
      5 H4          19.8160    17.8170    32.6740 H          1 COC       0.036184
      6 H5          21.3370    18.5330    32.1890 H          1 COC       0.036184
      7 C3          21.1100    18.2790    34.3260 C.3        1 COC      -0.071431
      8 H6          22.0890    18.7430    34.4570 H          1 COC       0.038183
      9 H7          21.3020    17.2050    34.3500 H          1 COC       0.038183
     10 C4          20.1780    18.6240    35.5160 C.3        1 COC      -0.089939
     11 H8          19.1310    18.6540    35.2040 H          1 COC       0.049928
     12 H9          20.2510    17.7960    36.2270 H          1 COC       0.049928
     13 C5          20.5690    19.9190    36.2780 C.3        1 COC       0.145037
     14 H10         21.6280    19.8540    36.5490 H          1 COC       0.028688
     15 C6          20.3330    21.2500    35.5130 C.3        1 COC      -0.089939
     16 H11         19.2900    21.3390    35.2000 H          1 COC       0.049928
     17 H12         20.5030    22.0670    36.2190 H          1 COC       0.049928
     18 C7          21.2980    21.4770    34.3230 C.3        1 COC      -0.071431
     19 H13         22.2140    20.9020    34.4540 H          1 COC       0.038183
     20 H14         21.6170    22.5210    34.3410 H          1 COC       0.038183
     21 C8          20.6860    21.2200    32.9220 C.3        1 COC      -0.071931
     22 H15         21.4920    21.1930    32.1850 H          1 COC       0.036184
     23 H16         20.0660    22.0820    32.6680 H          1 COC       0.036184
     24 O1          19.8050    19.9580    37.4930 O.3        1 COC      -0.606064
     25 H1          20.1790    20.6900    38.0650 H          1 COC       0.396830
@<TRIPOS>BOND
     1    18    21 1   
     2    15    18 1   
     3    13    15 1   
     4    13    24 1   
     5    10    13 1   
     6     7    10 1   
     7     4     7 1   
     8     1     4 1   
     9     1    21 1   
    10    24    25 1   
    11    21    22 1   
    12    21    23 1   
    13    18    19 1   
    14    18    20 1   
    15    15    16 1   
    16    15    17 1   
    17    13    14 1   
    18    10    11 1   
    19    10    12 1   
    20     7     8 1   
    21     7     9 1   
    22     4     5 1   
    23     4     6 1   
    24     1     2 1   
    25     1     3 1   
@<TRIPOS>SUBSTRUCTURE
     1 COC         1 TEMP              0 ****  ****    0 ROOT
