@<TRIPOS>MOLECULE
Cpptraj
  147   154     1     0     0
SMALL
No Charge or Current Charge


@<TRIPOS>ATOM
      1 C1          23.7460    15.0670    33.3770 C.3        1 MGO       0.304529
      2 H1          24.8040    14.7630    33.5070 H          1 MGO       0.090782
      3 O1          23.6320    16.4990    33.0740 O.3        1 MGO      -0.453070
      4 C2          23.1640    14.2700    32.2120 C.3        1 MGO       0.092199
      5 H2          23.2930    13.2020    32.3980 H          1 MGO       0.102926
      6 O2          23.8340    14.6350    30.9940 O.3        1 MGO      -0.586639
      7 HO2         24.3010    15.4780    31.1090 H          1 MGO       0.425065
      8 C3          21.6960    14.5920    32.0250 C.3        1 MGO       0.093211
      9 H3          21.5860    15.6390    31.7290 H          1 MGO       0.064468
     10 O3          21.2120    13.7180    30.9910 O.3        1 MGO      -0.592567
     11 HO3         21.9250    13.6480    30.3410 H          1 MGO       0.421017
     12 C4          20.9300    14.3250    33.3090 C.3        1 MGO       0.127621
     13 H4          20.9530    13.2550    33.5230 H          1 MGO       0.080661
     14 C5          21.5410    15.0960    34.4910 C.3        1 MGO       0.104343
     15 H5          21.4660    16.1630    34.2690 H          1 MGO       0.068516
     16 O5          22.9830    14.7510    34.6000 O.3        1 MGO      -0.427383
     17 C6          20.8760    14.8990    35.8620 C.3        1 MGO       0.141081
     18 H61         20.0790    15.6360    35.9930 H          1 MGO       0.057384
     19 H62         21.6090    15.0450    36.6590 H          1 MGO       0.057384
     20 O6          20.3070    13.5870    35.9670 O.3        1 MGO      -0.593555
     21 HO6         19.3980    13.6270    35.6460 H          1 MGO       0.422027
     22 C1          26.0450    19.9140    33.3770 C.3        2 MGO       0.304529
     23 H1          26.9420    20.5520    33.5040 H          2 MGO       0.090782
     24 O1          24.8540    20.7170    33.0740 O.3        2 MGO      -0.453070
     25 C2          26.3050    18.9620    32.2110 C.3        2 MGO       0.092199
     26 H2          27.2220    18.3960    32.3970 H          2 MGO       0.102926
     27 O2          26.4360    19.7120    30.9930 O.3        2 MGO      -0.586639
     28 HO2         26.0680    20.6040    31.1080 H          2 MGO       0.425065
     29 C3          25.1370    18.0160    32.0240 C.3        2 MGO       0.093211
     30 H3          24.2480    18.5810    31.7290 H          2 MGO       0.064468
     31 O3          25.5190    17.0930    30.9910 O.3        2 MGO      -0.592567
     32 HO3         26.0190    17.6060    30.3390 H          2 MGO       0.421017
     33 C4          24.8680    17.2510    33.3100 C.3        2 MGO       0.127621
     34 H4          25.7200    16.5990    33.5220 H          2 MGO       0.080661
     35 C5          24.6470    18.2090    34.4920 C.3        2 MGO       0.104343
     36 H5          23.7670    18.8160    34.2690 H          2 MGO       0.068516
     37 O5          25.8170    19.1210    34.6000 O.3        2 MGO      -0.427383
     38 C6          24.3870    17.5660    35.8620 C.3        2 MGO       0.141081
     39 H61         23.3150    17.4030    35.9940 H          2 MGO       0.057384
     40 H62         24.7300    18.2300    36.6590 H          2 MGO       0.057384
     41 O6          25.0590    16.3040    35.9670 O.3        2 MGO      -0.593555
     42 HO6         24.4610    15.6160    35.6460 H          2 MGO       0.422027
     43 C1          23.6880    24.7360    33.3760 C.3        3 MGO       0.304529
     44 H1          23.7480    25.8330    33.5050 H          3 MGO       0.090782
     45 O1          22.3160    24.3030    33.0730 O.3        3 MGO      -0.453070
     46 C2          24.5940    24.3440    32.2120 C.3        3 MGO       0.092199
     47 H2          25.6070    24.7070    32.3950 H          3 MGO       0.102926
     48 O2          24.0890    24.9140    30.9920 O.3        3 MGO      -0.586639
     49 HO2         23.1630    25.1820    31.1080 H          3 MGO       0.425065
     50 C3          24.6050    22.8400    32.0230 C.3        3 MGO       0.093211
     51 H3          23.6090    22.4990    31.7280 H          3 MGO       0.064468
     52 O3          25.5650    22.5640    30.9900 O.3        3 MGO      -0.592567
     53 HO3         25.4750    23.2740    30.3390 H          3 MGO       0.421017
     54 C4          25.0370    22.1540    33.3090 C.3        3 MGO       0.127621
     55 H4          26.0780    22.4130    33.5200 H          3 MGO       0.080661
     56 C5          24.1510    22.5780    34.4900 C.3        3 MGO       0.104343
     57 H5          23.1270    22.2680    34.2680 H          3 MGO       0.068516
     58 O5          24.1660    24.0610    34.5990 O.3        3 MGO      -0.427383
     59 C6          24.4910    21.9750    35.8610 C.3        3 MGO       0.141081
     60 H61         23.9510    21.0350    35.9930 H          3 MGO       0.057384
     61 H62         24.1860    22.6570    36.6580 H          3 MGO       0.057384
     62 O6          25.8970    21.7110    35.9670 O.3        3 MGO      -0.593555
     63 HO6         26.0620    20.8160    35.6460 H          3 MGO       0.422027
     64 C1          18.4500    25.8970    33.3770 C.3        4 MGO       0.304529
     65 H1          17.6290    26.6300    33.5060 H          4 MGO       0.090782
     66 O1          17.9330    24.5550    33.0740 O.3        4 MGO      -0.453070
     67 C2          19.3200    26.3600    32.2120 C.3        4 MGO       0.092199
     68 H2          19.6680    27.3800    32.3970 H          4 MGO       0.102926
     69 O2          18.5590    26.3230    30.9930 O.3        4 MGO      -0.586639
     70 HO2         17.7720    25.7670    31.1090 H          4 MGO       0.425065
     71 C3          20.5030    25.4340    32.0240 C.3        4 MGO       0.093211
     72 H3          20.1490    24.4420    31.7290 H          4 MGO       0.064468
     73 O3          21.3170    26.0110    30.9910 O.3        4 MGO      -0.592567
     74 HO3         20.7060    26.3840    30.3400 H          4 MGO       0.421017
     75 C4          21.3090    25.3410    33.3090 C.3        4 MGO       0.127621
     76 H4          21.7530    26.3160    33.5220 H          4 MGO       0.080661
     77 C5          20.4260    24.9130    34.4900 C.3        4 MGO       0.104343
     78 H5          20.0300    23.9190    34.2690 H          4 MGO       0.068516
     79 O5          19.2750    25.8500    34.5990 O.3        4 MGO      -0.427383
     80 C6          21.1100    24.8030    35.8600 C.3        4 MGO       0.141081
     81 H61         21.5070    23.7930    35.9940 H          4 MGO       0.057384
     82 H62         20.3860    24.9880    36.6590 H          4 MGO       0.057384
     83 O6          22.1900    25.7380    35.9670 O.3        4 MGO      -0.593555
     84 HO6         22.9930    25.3080    35.6440 H          4 MGO       0.422027
     85 C1          14.2760    22.5260    33.3780 C.3        5 MGO       0.304529
     86 H1          13.1910    22.3410    33.5070 H          5 MGO       0.090782
     87 O1          15.0000    21.2850    33.0740 O.3        5 MGO      -0.453070
     88 C2          14.4550    23.4960    32.2120 C.3        5 MGO       0.092199
     89 H2          13.8740    24.4040    32.3980 H          5 MGO       0.102926
     90 O2          14.0110    22.8770    30.9950 O.3        5 MGO      -0.586639
     91 HO2         13.9550    21.9160    31.1090 H          5 MGO       0.425065
     92 C3          15.9180    23.8430    32.0250 C.3        5 MGO       0.093211
     93 H3          16.4720    22.9470    31.7280 H          5 MGO       0.064468
     94 O3          15.9740    24.8390    30.9910 O.3        5 MGO      -0.592567
     95 HO3         15.3010    24.5950    30.3410 H          5 MGO       0.421017
     96 C4          16.4920    24.4150    33.3110 C.3        5 MGO       0.127621
     97 H4          16.0060    25.3720    33.5230 H          5 MGO       0.080661
     98 C5          16.2760    23.4560    34.4920 C.3        5 MGO       0.104343
     99 H5          16.8050    22.5280    34.2690 H          5 MGO       0.068516
    100 O5          14.8260    23.1430    34.6000 O.3        5 MGO      -0.427383
    101 C6          16.7900    23.9230    35.8620 C.3        5 MGO       0.141081
    102 H61         17.8260    23.6050    35.9940 H          5 MGO       0.057384
    103 H62         16.1930    23.4720    36.6600 H          5 MGO       0.057384
    104 O6          16.7320    25.3500    35.9680 O.3        5 MGO      -0.593555
    105 HO6         17.5690    25.7110    35.6460 H          5 MGO       0.422027
    106 C1          14.3080    17.1600    33.3770 C.3        6 MGO       0.304529
    107 H1          13.7760    16.1980    33.5050 H          6 MGO       0.090782
    108 O1          15.7300    16.9530    33.0730 O.3        6 MGO      -0.453070
    109 C2          13.6620    17.9060    32.2120 C.3        6 MGO       0.092199
    110 H2          12.5900    18.0190    32.3970 H          6 MGO       0.102926
    111 O2          13.8680    17.1730    30.9930 O.3        6 MGO      -0.586639
    112 HO2         14.5860    16.5300    31.1080 H          6 MGO       0.425065
    113 C3          14.3030    19.2660    32.0230 C.3        6 MGO       0.093211
    114 H3          15.3470    19.1410    31.7280 H          6 MGO       0.064468
    115 O3          13.5580    19.9320    30.9900 O.3        6 MGO      -0.592567
    116 HO3         13.3310    19.2520    30.3400 H          6 MGO       0.421017
    117 C4          14.2120    20.0710    33.3100 C.3        6 MGO       0.127621
    118 H4          13.1640    20.2880    33.5220 H          6 MGO       0.080661
    119 C5          14.8280    19.3040    34.4910 C.3        6 MGO       0.104343
    120 H5          15.8830    19.1400    34.2690 H          6 MGO       0.068516
    121 O5          14.1690    17.9740    34.6000 O.3        6 MGO      -0.427383
    122 C6          14.7830    19.9950    35.8610 C.3        6 MGO       0.141081
    123 H61         15.6760    20.6080    35.9930 H          6 MGO       0.057384
    124 H62         14.7620    19.2480    36.6590 H          6 MGO       0.057384
    125 O6          13.6300    20.8410    35.9670 O.3        6 MGO      -0.593555
    126 HO6         13.8710    21.7210    35.6460 H          6 MGO       0.422027
    127 C1          18.5230    13.8410    33.3760 C.3        7 MGO       0.304529
    128 H1          18.9450    12.8250    33.5050 H          7 MGO       0.090782
    129 O1          19.5710    14.8240    33.0740 O.3        7 MGO      -0.453070
    130 C2          17.5380    13.8000    32.2110 C.3        7 MGO       0.092199
    131 H2          16.7810    13.0330    32.3960 H          7 MGO       0.102926
    132 O2          18.2400    13.5040    30.9930 O.3        7 MGO      -0.586639
    133 HO2         19.1900    13.6650    31.1090 H          7 MGO       0.425065
    134 C3          16.8740    15.1490    32.0240 C.3        7 MGO       0.093211
    135 H3          17.6250    15.8880    31.7290 H          7 MGO       0.064468
    136 O3          15.8910    14.9820    30.9900 O.3        7 MGO      -0.592567
    137 HO3         16.2790    14.3810    30.3400 H          7 MGO       0.421017
    138 C4          16.1880    15.5820    33.3100 C.3        7 MGO       0.127621
    139 H4          15.3640    14.8960    33.5210 H          7 MGO       0.080661
    140 C5          17.1700    15.5840    34.4920 C.3        7 MGO       0.104343
    141 H5          17.9580    16.3080    34.2680 H          7 MGO       0.068516
    142 O5          17.8000    14.2400    34.5990 O.3        7 MGO      -0.427383
    143 C6          16.6020    15.9800    35.8610 C.3        7 MGO       0.141081
    144 H61         16.6810    17.0610    35.9940 H          7 MGO       0.057384
    145 H62         17.1740    15.4970    36.6580 H          7 MGO       0.057384
    146 O6          15.2210    15.6060    35.9670 O.3        7 MGO      -0.593555
    147 HO6         14.6840    16.3410    35.6450 H          7 MGO       0.422027
@<TRIPOS>BOND
     1    17    20 1   
     2    14    16 1   
     3    14    17 1   
     4    12    14 1   
     5    12   129 1   
     6     8    10 1   
     7     8    12 1   
     8     4     6 1   
     9     4     8 1   
    10     3    33 1   
    11     1     3 1   
    12     1     4 1   
    13     1    16 1   
    14    38    41 1   
    15    35    37 1   
    16    35    38 1   
    17    33    35 1   
    18    29    31 1   
    19    29    33 1   
    20    25    27 1   
    21    25    29 1   
    22    24    54 1   
    23    22    24 1   
    24    22    25 1   
    25    22    37 1   
    26    59    62 1   
    27    56    58 1   
    28    56    59 1   
    29    54    56 1   
    30    50    52 1   
    31    50    54 1   
    32    46    48 1   
    33    46    50 1   
    34    45    75 1   
    35    43    45 1   
    36    43    46 1   
    37    43    58 1   
    38    80    83 1   
    39    77    79 1   
    40    77    80 1   
    41    75    77 1   
    42    71    73 1   
    43    71    75 1   
    44    67    69 1   
    45    67    71 1   
    46    66    96 1   
    47    64    66 1   
    48    64    67 1   
    49    64    79 1   
    50   101   104 1   
    51    98   100 1   
    52    98   101 1   
    53    96    98 1   
    54    92    94 1   
    55    92    96 1   
    56    88    90 1   
    57    88    92 1   
    58    87   117 1   
    59    85    87 1   
    60    85    88 1   
    61    85   100 1   
    62   122   125 1   
    63   119   121 1   
    64   119   122 1   
    65   117   119 1   
    66   113   115 1   
    67   113   117 1   
    68   109   111 1   
    69   109   113 1   
    70   108   138 1   
    71   106   108 1   
    72   106   109 1   
    73   106   121 1   
    74   143   146 1   
    75   140   142 1   
    76   140   143 1   
    77   138   140 1   
    78   134   136 1   
    79   134   138 1   
    80   130   132 1   
    81   130   134 1   
    82   127   129 1   
    83   127   130 1   
    84   127   142 1   
    85    20    21 1   
    86    17    18 1   
    87    17    19 1   
    88    14    15 1   
    89    12    13 1   
    90    10    11 1   
    91     8     9 1   
    92     6     7 1   
    93     4     5 1   
    94     1     2 1   
    95    41    42 1   
    96    38    39 1   
    97    38    40 1   
    98    35    36 1   
    99    33    34 1   
   100    31    32 1   
   101    29    30 1   
   102    27    28 1   
   103    25    26 1   
   104    22    23 1   
   105    62    63 1   
   106    59    60 1   
   107    59    61 1   
   108    56    57 1   
   109    54    55 1   
   110    52    53 1   
   111    50    51 1   
   112    48    49 1   
   113    46    47 1   
   114    43    44 1   
   115    83    84 1   
   116    80    81 1   
   117    80    82 1   
   118    77    78 1   
   119    75    76 1   
   120    73    74 1   
   121    71    72 1   
   122    69    70 1   
   123    67    68 1   
   124    64    65 1   
   125   104   105 1   
   126   101   102 1   
   127   101   103 1   
   128    98    99 1   
   129    96    97 1   
   130    94    95 1   
   131    92    93 1   
   132    90    91 1   
   133    88    89 1   
   134    85    86 1   
   135   125   126 1   
   136   122   123 1   
   137   122   124 1   
   138   119   120 1   
   139   117   118 1   
   140   115   116 1   
   141   113   114 1   
   142   111   112 1   
   143   109   110 1   
   144   106   107 1   
   145   146   147 1   
   146   143   144 1   
   147   143   145 1   
   148   140   141 1   
   149   138   139 1   
   150   136   137 1   
   151   134   135 1   
   152   132   133 1   
   153   130   131 1   
   154   127   128 1   
@<TRIPOS>SUBSTRUCTURE
     1 MGO         1 TEMP              0 ****  ****    0 ROOT
