@<TRIPOS>MOLECULE
Cpptraj
   16    16     1     0     0
SMALL
No Charge or Current Charge


@<TRIPOS>ATOM
      1 C1          18.5410    19.5020    33.9470 C.3        1 CPE      -0.076981
      2 H2          17.9800    20.1840    33.3030 H          1 CPE       0.042405
      3 H3          19.3930    19.1100    33.3860 H          1 CPE       0.042405
      4 C2          17.6780    18.3410    34.4540 C.3        1 CPE      -0.076981
      5 H4          16.6830    18.7100    34.7130 H          1 CPE       0.042405
      6 H5          17.5760    17.5490    33.7090 H          1 CPE       0.042405
      7 C3          18.3960    17.8550    35.7210 C.3        1 CPE      -0.097503
      8 H6          19.1260    17.0860    35.4540 H          1 CPE       0.052145
      9 H7          17.6920    17.4220    36.4370 H          1 CPE       0.052145
     10 C4          19.1460    19.0780    36.2900 C.3        1 CPE       0.139952
     11 H8          20.1930    18.8170    36.4620 H          1 CPE       0.032666
     12 C5          19.0380    20.1920    35.2270 C.3        1 CPE      -0.097503
     13 H9          18.3110    20.9480    35.5330 H          1 CPE       0.052145
     14 H10         20.0000    20.6820    35.0630 H          1 CPE       0.052145
     15 O1          18.5410    19.5020    37.5180 O.3        1 CPE      -0.599431
     16 H1          19.1160    20.2330    37.8830 H          1 CPE       0.397581
@<TRIPOS>BOND
     1    10    12 1   
     2    10    15 1   
     3     7    10 1   
     4     4     7 1   
     5     1     4 1   
     6     1    12 1   
     7    15    16 1   
     8    12    13 1   
     9    12    14 1   
    10    10    11 1   
    11     7     8 1   
    12     7     9 1   
    13     4     5 1   
    14     4     6 1   
    15     1     2 1   
    16     1     3 1   
@<TRIPOS>SUBSTRUCTURE
     1 CPE         1 TEMP              0 ****  ****    0 ROOT
