@<TRIPOS>MOLECULE
Cpptraj generated mol2 file.
  126   132     6     0     0
SMALL
USER_CHARGES


@<TRIPOS>ATOM
      1 C1         23.9930   18.7090   31.6610 c3         1 MGO      0.304529
      2 H1         24.9770   19.2040   31.7770 h2         1 MGO      0.090782
      3 O1         22.9470   19.6710   31.2940 os         1 MGO     -0.453070
      4 C2         24.1000   17.6760   30.5420 c3         1 MGO      0.092199
      5 H2         24.8940   16.9590   30.7730 h1         1 MGO      0.102926
      6 O2         24.3920   18.3480   29.3060 oh         1 MGO     -0.586639
      7 HO2        24.1510   19.2840   29.3810 ho         1 MGO      0.425065
      8 C3         22.7790   16.9590   30.3570 c3         1 MGO      0.093211
      9 H3         22.0290   17.6730   30.0070 h1         1 MGO      0.064468
     10 O3         22.9950   15.9360   29.3730 oh         1 MGO     -0.592567
     11 HO3        23.6010   16.3070   28.7170 ho         1 MGO      0.421017
     12 C4         22.3120   16.3200   31.6570 c3         1 MGO      0.127621
     13 H4         22.9670   15.4790   31.8980 h1         1 MGO      0.080661
     14 C5         22.2990   17.3320   32.8170 c3         1 MGO      0.104343
     15 H5         21.5510   18.0920   32.5800 h1         1 MGO      0.068516
     16 O5         23.6230   18.0070   32.9030 os         1 MGO     -0.427383
     17 C6         21.9300   16.7990   34.2090 c3         1 MGO      0.141081
     18 H61        20.8560   16.9050   34.3710 h1         1 MGO      0.057384
     19 H62        22.4460   17.3740   34.9820 h1         1 MGO      0.057384
     20 O6         22.2770   15.4130   34.3330 oh         1 MGO     -0.593555
     21 HO6        21.5180   14.8890   34.0440 ho         1 MGO      0.422027
     22 C1         22.0540   23.7220   31.6270 c3         2 MGO      0.304529
     23 H1         22.1210   24.8200   31.7560 h2         2 MGO      0.090782
     24 O1         20.6890   23.3030   31.2880 os         2 MGO     -0.453070
     25 C2         22.9770   23.3120   30.4850 c3         2 MGO      0.092199
     26 H2         23.9990   23.6370   30.6950 h1         2 MGO      0.102926
     27 O2         22.5120   23.9120   29.2650 oh         2 MGO     -0.586639
     28 HO2        21.5830   24.1720   29.3640 ho         2 MGO      0.425065
     29 C3         22.9310   21.8110   30.2850 c3         2 MGO      0.093211
     30 H3         21.9300   21.5220   29.9520 h1         2 MGO      0.064468
     31 O3         23.9040   21.4960   29.2730 oh         2 MGO     -0.592567
     32 HO3        23.8690   22.2140   28.6260 ho         2 MGO      0.421017
     33 C4         23.2820   21.0720   31.5670 c3         2 MGO      0.127621
     34 H4         24.3430   21.2160   31.7850 h1         2 MGO      0.080661
     35 C5         22.4260   21.5550   32.7540 c3         2 MGO      0.104343
     36 H5         21.3890   21.2890   32.5370 h1         2 MGO      0.068516
     37 O5         22.5050   23.0360   32.8530 os         2 MGO     -0.427383
     38 C6         22.7360   20.9530   34.1310 c3         2 MGO      0.141081
     39 H61        22.1100   20.0740   34.2990 h1         2 MGO      0.057384
     40 H62        22.5130   21.6790   34.9170 h1         2 MGO      0.057384
     41 O6         24.1110   20.5590   34.2210 oh         2 MGO     -0.593555
     42 HO6        24.1790   19.6430   33.9200 ho         2 MGO      0.422027
     43 C1         16.7440   24.5520   31.7270 c3         3 MGO      0.304529
     44 H1         15.8310   25.1570   31.8830 h2         3 MGO      0.090782
     45 O1         16.4170   23.1630   31.3800 os         3 MGO     -0.453070
     46 C2         17.5340   25.1570   30.5720 c3         3 MGO      0.092199
     47 H2         17.7710   26.2030   30.7880 h1         3 MGO      0.102926
     48 O2         16.7540   25.0710   29.3690 oh         3 MGO     -0.586639
     49 HO2        16.0670   24.3940   29.4770 ho         3 MGO      0.425065
     50 C3         18.8070   24.3700   30.3320 c3         3 MGO      0.093211
     51 H3         18.5490   23.3610   29.9970 h1         3 MGO      0.064468
     52 O3         19.5420   25.0640   29.3120 oh         3 MGO     -0.592567
     53 HO3        18.8880   25.4010   28.6850 ho         3 MGO      0.421017
     54 C4         19.6510   24.2890   31.5980 c3         3 MGO      0.127621
     55 H4         20.0630   25.2770   31.8180 h1         3 MGO      0.080661
     56 C5         18.8330   23.7760   32.7970 c3         3 MGO      0.104343
     57 H5         18.5380   22.7490   32.5760 h1         3 MGO      0.068516
     58 O5         17.5920   24.5860   32.9350 os         3 MGO     -0.427383
     59 C6         19.5400   23.7280   34.1590 c3         3 MGO      0.141081
     60 H61        19.9910   22.7440   34.3040 h1         3 MGO      0.057384
     61 H62        18.8190   23.8910   34.9630 h1         3 MGO      0.057384
     62 O6         20.5710   24.7200   34.2340 oh         3 MGO     -0.593555
     63 HO6        21.3900   24.3250   33.9100 ho         3 MGO      0.422027
     64 C1         13.3730   20.3680   31.8570 c3         4 MGO      0.304529
     65 H1         12.3950   19.8760   32.0300 h2         4 MGO      0.090782
     66 O1         14.4020   19.3940   31.4770 os         4 MGO     -0.453070
     67 C2         13.2170   21.3680   30.7170 c3         4 MGO      0.092199
     68 H2         12.4330   22.0910   30.9580 h1         4 MGO      0.102926
     69 O2         12.8760   20.6610   29.5140 oh         4 MGO     -0.586639
     70 HO2        13.1210   19.7270   29.6060 ho         4 MGO      0.425065
     71 C3         14.5300   22.0780   30.4550 c3         4 MGO      0.093211
     72 H3         15.2650   21.3540   30.0940 h1         4 MGO      0.064468
     73 O3         14.2730   23.0730   29.4510 oh         4 MGO     -0.592567
     74 HO3        13.6410   22.6830   28.8330 ho         4 MGO      0.421017
     75 C4         15.0500   22.7540   31.7150 c3         4 MGO      0.127621
     76 H4         14.4060   23.6030   31.9590 h1         4 MGO      0.080661
     77 C5         15.1130   21.7760   32.9030 c3         4 MGO      0.104343
     78 H5         15.8490   21.0090   32.6570 h1         4 MGO      0.068516
     79 O5         13.7960   21.1050   33.0630 os         4 MGO     -0.427383
     80 C6         15.5390   22.3490   34.2620 c3         4 MGO      0.141081
     81 H61        16.6200   22.2480   34.3820 h1         4 MGO      0.057384
     82 H62        15.0560   21.7970   35.0720 h1         4 MGO      0.057384
     83 O6         15.1970   23.7370   34.3610 oh         4 MGO     -0.593555
     84 HO6        15.9430   24.2530   34.0250 ho         4 MGO      0.422027
     85 C1         15.3100   15.3540   31.8910 c3         5 MGO      0.304529
     86 H1         15.2520   14.2600   32.0540 h2         5 MGO      0.090782
     87 O1         16.6610   15.7640   31.4820 os         5 MGO     -0.453070
     88 C2         14.3420   15.7310   30.7760 c3         5 MGO      0.092199
     89 H2         13.3290   15.4140   31.0370 h1         5 MGO      0.102926
     90 O2         14.7570   15.0940   29.5550 oh         5 MGO     -0.586639
     91 HO2        15.6880   14.8390   29.6240 ho         5 MGO      0.425065
     92 C3         14.3770   17.2270   30.5280 c3         5 MGO      0.093211
     93 H3         15.3640   17.5050   30.1480 h1         5 MGO      0.064468
     94 O3         13.3630   17.5120   29.5510 oh         5 MGO     -0.592567
     95 HO3        13.3730   16.7760   28.9240 ho         5 MGO      0.421017
     96 C4         14.0800   18.0020   31.8040 c3         5 MGO      0.127621
     97 H4         13.0300   17.8650   32.0710 h1         5 MGO      0.080661
     98 C5         14.9850   17.5540   32.9660 c3         5 MGO      0.104343
     99 H5         16.0130   17.8110   32.7000 h1         5 MGO      0.068516
    100 O5         14.9120   16.0760   33.1130 os         5 MGO     -0.427383
    101 C6         14.7330   18.1950   34.3400 c3         5 MGO      0.141081
    102 H61        15.3650   19.0800   34.4540 h1         5 MGO      0.057384
    103 H62        14.9890   17.4930   35.1360 h1         5 MGO      0.057384
    104 O6         13.3630   18.5930   34.4720 oh         5 MGO     -0.593555
    105 HO6        13.2810   19.4990   34.1490 ho         5 MGO      0.422027
    106 C1         20.6210   14.5250   31.7920 c3         6 MGO      0.304529
    107 H1         21.5420   13.9250   31.9270 h2         6 MGO      0.090782
    108 O1         20.9330   15.9020   31.3900 os         6 MGO     -0.453070
    109 C2         19.7840   13.8860   30.6890 c3         6 MGO      0.092199
    110 H2         19.5580   12.8470   30.9440 h1         6 MGO      0.102926
    111 O2         20.5140   13.9390   29.4520 oh         6 MGO     -0.586639
    112 HO2        21.2040   14.6170   29.5110 ho         6 MGO      0.425065
    113 C3         18.5020   14.6670   30.4800 c3         6 MGO      0.093211
    114 H3         18.7460   15.6650   30.1050 h1         6 MGO      0.064468
    115 O3         17.7250   13.9430   29.5120 oh         6 MGO     -0.592567
    116 HO3        18.3510   13.5890   28.8670 ho         6 MGO      0.421017
    117 C4         17.7130   14.7850   31.7760 c3         6 MGO      0.127621
    118 H4         17.3110   13.8030   32.0420 h1         6 MGO      0.080661
    119 C5         18.5790   15.3320   32.9240 c3         6 MGO      0.104343
    120 H5         18.8640   16.3530   32.6610 h1         6 MGO      0.068516
    121 O5         19.8260   14.5280   33.0330 os         6 MGO     -0.427383
    122 C6         17.9300   15.4210   34.3120 c3         6 MGO      0.141081
    123 H61        17.4830   16.4080   34.4490 h1         6 MGO      0.057384
    124 H62        18.6840   15.2810   35.0910 h1         6 MGO      0.057384
    125 O6         16.9020   14.4300   34.4610 oh         6 MGO     -0.593555
    126 HO6        16.0700   14.8170   34.1590 ho         6 MGO      0.422027
@<TRIPOS>BOND
    1    17    20 1
    2    14    16 1
    3    14    17 1
    4    12    14 1
    5    12   108 1
    6     8    10 1
    7     8    12 1
    8     4     6 1
    9     4     8 1
   10     3    33 1
   11     1     3 1
   12     1     4 1
   13     1    16 1
   14    38    41 1
   15    35    37 1
   16    35    38 1
   17    33    35 1
   18    29    31 1
   19    29    33 1
   20    25    27 1
   21    25    29 1
   22    24    54 1
   23    22    24 1
   24    22    25 1
   25    22    37 1
   26    59    62 1
   27    56    58 1
   28    56    59 1
   29    54    56 1
   30    50    52 1
   31    50    54 1
   32    46    48 1
   33    46    50 1
   34    45    75 1
   35    43    45 1
   36    43    46 1
   37    43    58 1
   38    80    83 1
   39    77    79 1
   40    77    80 1
   41    75    77 1
   42    71    73 1
   43    71    75 1
   44    67    69 1
   45    67    71 1
   46    66    96 1
   47    64    66 1
   48    64    67 1
   49    64    79 1
   50   101   104 1
   51    98   100 1
   52    98   101 1
   53    96    98 1
   54    92    94 1
   55    92    96 1
   56    88    90 1
   57    88    92 1
   58    87   117 1
   59    85    87 1
   60    85    88 1
   61    85   100 1
   62   122   125 1
   63   119   121 1
   64   119   122 1
   65   117   119 1
   66   113   115 1
   67   113   117 1
   68   109   111 1
   69   109   113 1
   70   106   108 1
   71   106   109 1
   72   106   121 1
   73    20    21 1
   74    17    18 1
   75    17    19 1
   76    14    15 1
   77    12    13 1
   78    10    11 1
   79     8     9 1
   80     6     7 1
   81     4     5 1
   82     1     2 1
   83    41    42 1
   84    38    39 1
   85    38    40 1
   86    35    36 1
   87    33    34 1
   88    31    32 1
   89    29    30 1
   90    27    28 1
   91    25    26 1
   92    22    23 1
   93    62    63 1
   94    59    60 1
   95    59    61 1
   96    56    57 1
   97    54    55 1
   98    52    53 1
   99    50    51 1
  100    48    49 1
  101    46    47 1
  102    43    44 1
  103    83    84 1
  104    80    81 1
  105    80    82 1
  106    77    78 1
  107    75    76 1
  108    73    74 1
  109    71    72 1
  110    69    70 1
  111    67    68 1
  112    64    65 1
  113   104   105 1
  114   101   102 1
  115   101   103 1
  116    98    99 1
  117    96    97 1
  118    94    95 1
  119    92    93 1
  120    90    91 1
  121    88    89 1
  122    85    86 1
  123   125   126 1
  124   122   123 1
  125   122   124 1
  126   119   120 1
  127   117   118 1
  128   115   116 1
  129   113   114 1
  130   111   112 1
  131   109   110 1
  132   106   107 1
@<TRIPOS>SUBSTRUCTURE
      1 MGO               1 ****               0 ****  **** 
      2 MGO              22 ****               0 ****  **** 
      3 MGO              43 ****               0 ****  **** 
      4 MGO              64 ****               0 ****  **** 
      5 MGO              85 ****               0 ****  **** 
      6 MGO             106 ****               0 ****  **** 
