@<TRIPOS>MOLECULE
Cpptraj generated mol2 file.
   20    19     1     0     0
SMALL
USER_CHARGES


@<TRIPOS>ATOM
      1 N1         17.4330   20.2120   37.8290 n4         1 MBA     -0.845836
      2 H1         16.5510   19.6860   37.7350 hn         1 MBA      0.459005
      3 H2         17.4120   20.9790   37.1400 hn         1 MBA      0.459005
      4 HN11       17.4300   20.6440   38.7670 hn         1 MBA      0.459005
      5 C1         18.6290   19.3250   37.6360 c3         1 MBA      0.130464
      6 H3         18.5640   18.5740   38.4300 hx         1 MBA      0.108670
      7 C2         19.9500   20.0930   37.8170 c3         1 MBA     -0.138138
      8 H4         20.0310   20.9320   37.1230 hc         1 MBA      0.082677
      9 H5         20.8050   19.4320   37.6590 hc         1 MBA      0.082677
     10 H6         20.0240   20.4910   38.8320 hc         1 MBA      0.082677
     11 C3         18.6060   18.5810   36.2800 c3         1 MBA     -0.118433
     12 H7         19.4480   17.8840   36.2480 hc         1 MBA      0.089675
     13 H8         17.7010   17.9670   36.2320 hc         1 MBA      0.089675
     14 C4         18.6630   19.4980   35.0330 c3         1 MBA     -0.090425
     15 H9         19.5920   20.0720   35.0220 hc         1 MBA      0.039189
     16 H10        17.8330   20.2100   35.0460 hc         1 MBA      0.039189
     17 C5         18.5850   18.6690   33.7390 c3         1 MBA     -0.099128
     18 H11        19.4180   17.9660   33.6810 hc         1 MBA      0.056684
     19 H12        18.6290   19.3250   32.8670 hc         1 MBA      0.056684
     20 H13        17.6490   18.1060   33.6960 hc         1 MBA      0.056684
@<TRIPOS>BOND
    1    14    17 1
    2    11    14 1
    3     5     7 1
    4     5    11 1
    5     1     5 1
    6    17    18 1
    7    17    19 1
    8    17    20 1
    9    14    15 1
   10    14    16 1
   11    11    12 1
   12    11    13 1
   13     7     8 1
   14     7     9 1
   15     7    10 1
   16     5     6 1
   17     1     2 1
   18     1     3 1
   19     1     4 1
@<TRIPOS>SUBSTRUCTURE
      1 MBA               1 ****               0 ****  **** 
