@<TRIPOS>MOLECULE
Cpptraj generated mol2 file.
  126   132     6     0     0
SMALL
USER_CHARGES


@<TRIPOS>ATOM
      1 C1         21.9420   15.2530   35.0070 c3         1 MGO      0.304529
      2 H1         21.9800   14.1540   34.8730 h2         1 MGO      0.090782
      3 O1         20.5930   15.7030   35.3690 os         1 MGO     -0.453070
      4 C2         22.8910   15.6370   36.1370 c3         1 MGO      0.092199
      5 H2         23.9030   15.2880   35.9110 h1         1 MGO      0.102926
      6 O2         22.4310   15.0400   37.3620 oh         1 MGO     -0.586639
      7 HO2        21.4950   14.8040   37.2750 ho         1 MGO      0.425065
      8 C3         22.8850   17.1370   36.3460 c3         1 MGO      0.093211
      9 H3         21.8960   17.4480   36.6930 h1         1 MGO      0.064468
     10 O3         23.8790   17.4240   37.3420 oh         1 MGO     -0.592567
     11 HO3        23.8380   16.7040   37.9870 ho         1 MGO      0.421017
     12 C4         23.2320   17.8730   35.0600 c3         1 MGO      0.127621
     13 H4         24.2860   17.7050   34.8240 h1         1 MGO      0.080661
     14 C5         22.3470   17.4170   33.8850 c3         1 MGO      0.104343
     15 H5         21.3190   17.7050   34.1190 h1         1 MGO      0.068516
     16 O5         22.3900   15.9330   33.7780 os         1 MGO     -0.427383
     17 C6         22.6480   18.0170   32.5050 c3         1 MGO      0.141081
     18 H61        22.0410   18.9120   32.3510 h1         1 MGO      0.057384
     19 H62        22.3970   17.3000   31.7190 h1         1 MGO      0.057384
     20 O6         24.0310   18.3800   32.3970 oh         1 MGO     -0.593555
     21 HO6        24.1260   19.2920   32.7000 ho         1 MGO      0.422027
     22 C1         16.6140   14.5490   34.9870 c3         2 MGO      0.304529
     23 H1         15.6820   13.9670   34.8420 h2         2 MGO      0.090782
     24 O1         16.3240   15.9430   35.3450 os         2 MGO     -0.453070
     25 C2         17.4060   13.9190   36.1270 c3         2 MGO      0.092199
     26 H2         17.6130   12.8690   35.9030 h1         2 MGO      0.102926
     27 O2         16.6460   14.0210   37.3410 oh         2 MGO     -0.586639
     28 HO2        15.9740   14.7130   37.2470 ho         2 MGO      0.425065
     29 C3         18.7000   14.6760   36.3490 c3         2 MGO      0.093211
     30 H3         18.4710   15.6890   36.6940 h1         2 MGO      0.064468
     31 O3         19.4350   13.9590   37.3550 oh         2 MGO     -0.592567
     32 HO3        18.7830   13.6350   37.9930 ho         2 MGO      0.421017
     33 C4         19.5260   14.7420   35.0730 c3         2 MGO      0.127621
     34 H4         19.9110   13.7460   34.8430 h1         2 MGO      0.080661
     35 C5         18.7020   15.2800   33.8880 c3         2 MGO      0.104343
     36 H5         18.4350   16.3140   34.1180 h1         2 MGO      0.068516
     37 O5         17.4400   14.5010   33.7670 os         2 MGO     -0.427383
     38 C6         19.3890   15.3170   32.5150 c3         2 MGO      0.141081
     39 H61        19.8620   16.2900   32.3670 h1         2 MGO      0.057384
     40 H62        18.6520   15.1760   31.7220 h1         2 MGO      0.057384
     41 O6         20.3950   14.3010   32.4200 oh         2 MGO     -0.593555
     42 HO6        21.2300   14.6760   32.7330 ho         2 MGO      0.422027
     43 C1         13.3390   18.8120   34.9260 c3         3 MGO      0.304529
     44 H1         12.3710   19.3260   34.7700 h2         3 MGO      0.090782
     45 O1         14.3980   19.7600   35.2950 os         3 MGO     -0.453070
     46 C2         13.1780   17.8110   36.0640 c3         3 MGO      0.092199
     47 H2         12.3750   17.1060   35.8320 h1         3 MGO      0.102926
     48 O2         12.8700   18.5200   37.2750 oh         3 MGO     -0.586639
     49 HO2        13.1360   19.4480   37.1840 ho         3 MGO      0.425065
     50 C3         14.4770   17.0680   36.3030 c3         3 MGO      0.093211
     51 H3         15.2350   17.7730   36.6560 h1         3 MGO      0.064468
     52 O3         14.2120   16.0750   37.3060 oh         3 MGO     -0.592567
     53 HO3        13.5990   16.4770   37.9360 ho         3 MGO      0.421017
     54 C4         14.9630   16.3860   35.0320 c3         3 MGO      0.127621
     55 H4         14.2940   15.5540   34.7930 h1         3 MGO      0.080661
     56 C5         15.0290   17.3680   33.8470 c3         3 MGO      0.104343
     57 H5         15.7880   18.1160   34.0860 h1         3 MGO      0.068516
     58 O5         13.7260   18.0710   33.7110 os         3 MGO     -0.427383
     59 C6         15.4210   16.7910   32.4800 c3         3 MGO      0.141081
     60 H61        16.5020   16.8680   32.3440 h1         3 MGO      0.057384
     61 H62        14.9390   17.3590   31.6810 h1         3 MGO      0.057384
     62 O6         15.0450   15.4110   32.3800 oh         3 MGO     -0.593555
     63 HO6        15.7830   14.8780   32.7030 ho         3 MGO      0.422027
     64 C1         15.3940   23.7780   34.8860 c3         4 MGO      0.304529
     65 H1         15.3580   24.8740   34.7290 h2         4 MGO      0.090782
     66 O1         16.7400   23.3360   35.2710 os         4 MGO     -0.453070
     67 C2         14.4330   23.4190   36.0140 c3         4 MGO      0.092199
     68 H2         13.4240   23.7620   35.7700 h1         4 MGO      0.102926
     69 O2         14.8800   24.0390   37.2300 oh         4 MGO     -0.586639
     70 HO2        15.8170   24.2740   37.1490 ho         4 MGO      0.425065
     71 C3         14.4370   21.9230   36.2540 c3         4 MGO      0.093211
     72 H3         15.4230   21.6190   36.6180 h1         4 MGO      0.064468
     73 O3         13.4330   21.6560   37.2450 oh         4 MGO     -0.592567
     74 HO3        13.4680   22.3880   37.8760 ho         4 MGO      0.421017
     75 C4         14.1040   21.1610   34.9790 c3         4 MGO      0.127621
     76 H4         13.0530   21.3230   34.7290 h1         4 MGO      0.080661
     77 C5         15.0010   21.5920   33.8050 c3         4 MGO      0.104343
     78 H5         16.0250   21.3100   34.0550 h1         4 MGO      0.068516
     79 O5         14.9590   23.0730   33.6660 os         4 MGO     -0.427383
     80 C6         14.7130   20.9640   32.4330 c3         4 MGO      0.141081
     81 H61        15.3210   20.0660   32.3050 h1         4 MGO      0.057384
     82 H62        14.9720   21.6650   31.6360 h1         4 MGO      0.057384
     83 O6         13.3320   20.6000   32.3180 oh         4 MGO     -0.593555
     84 HO6        13.2350   19.6930   32.6400 ho         4 MGO      0.422027
     85 C1         20.7220   24.4830   34.9060 c3         5 MGO      0.304529
     86 H1         21.6550   25.0610   34.7590 h2         5 MGO      0.090782
     87 O1         21.0080   23.0960   35.2950 os         5 MGO     -0.453070
     88 C2         19.9180   25.1360   36.0240 c3         5 MGO      0.092199
     89 H2         19.7140   26.1810   35.7770 h1         5 MGO      0.102926
     90 O2         20.6660   25.0590   37.2490 oh         5 MGO     -0.586639
     91 HO2        21.3380   24.3650   37.1750 ho         5 MGO      0.425065
     92 C3         18.6220   24.3840   36.2500 c3         5 MGO      0.093211
     93 H3         18.8480   23.3780   36.6170 h1         5 MGO      0.064468
     94 O3         17.8770   25.1210   37.2330 oh         5 MGO     -0.592567
     95 HO3        18.5220   25.4580   37.8700 ho         5 MGO      0.421017
     96 C4         17.8090   24.2910   34.9660 c3         5 MGO      0.127621
     97 H4         17.4270   25.2830   34.7110 h1         5 MGO      0.080661
     98 C5         18.6450   23.7290   33.8010 c3         5 MGO      0.104343
     99 H5         18.9100   22.7010   34.0550 h1         5 MGO      0.068516
    100 O5         19.9080   24.5050   33.6770 os         5 MGO     -0.427383
    101 C6         17.9720   23.6640   32.4230 c3         5 MGO      0.141081
    102 H61        17.5010   22.6880   32.2890 h1         5 MGO      0.057384
    103 H62        18.7180   23.7890   31.6340 h1         5 MGO      0.057384
    104 O6         16.9670   24.6780   32.2960 oh         5 MGO     -0.593555
    105 HO6        16.1310   24.3090   32.6080 ho         5 MGO      0.422027
    106 C1         23.9970   20.2200   34.9660 c3         6 MGO      0.304529
    107 H1         24.9670   19.7020   34.8300 h2         6 MGO      0.090782
    108 O1         22.9350   19.2790   35.3450 os         6 MGO     -0.453070
    109 C2         24.1460   21.2440   36.0850 c3         6 MGO      0.092199
    110 H2         24.9520   21.9440   35.8470 h1         6 MGO      0.102926
    111 O2         24.4410   20.5600   37.3140 oh         6 MGO     -0.586639
    112 HO2        24.1770   19.6300   37.2390 ho         6 MGO      0.425065
    113 C3         22.8450   21.9910   36.2950 c3         6 MGO      0.093211
    114 H3         22.0840   21.2930   36.6550 h1         6 MGO      0.064468
    115 O3         23.1000   23.0060   37.2800 oh         6 MGO     -0.592567
    116 HO3        23.7070   22.6160   37.9250 ho         6 MGO      0.421017
    117 C4         22.3730   22.6470   35.0060 c3         6 MGO      0.127621
    118 H4         23.0440   23.4740   34.7570 h1         6 MGO      0.080661
    119 C5         22.3180   21.6410   33.8420 c3         6 MGO      0.104343
    120 H5         21.5560   20.8980   34.0870 h1         6 MGO      0.068516
    121 O5         23.6230   20.9350   33.7330 os         6 MGO     -0.427383
    122 C6         21.9400   22.1890   32.4580 c3         6 MGO      0.141081
    123 H61        20.8600   22.1100   32.3120 h1         6 MGO      0.057384
    124 H62        22.4300   21.6060   31.6750 h1         6 MGO      0.057384
    125 O6         22.3170   23.5670   32.3340 oh         6 MGO     -0.593555
    126 HO6        21.5760   24.1080   32.6380 ho         6 MGO      0.422027
@<TRIPOS>BOND
    1    17    20 1
    2    14    16 1
    3    14    17 1
    4    12    14 1
    5    12   108 1
    6     8    10 1
    7     8    12 1
    8     4     6 1
    9     4     8 1
   10     3    33 1
   11     1     3 1
   12     1     4 1
   13     1    16 1
   14    38    41 1
   15    35    37 1
   16    35    38 1
   17    33    35 1
   18    29    31 1
   19    29    33 1
   20    25    27 1
   21    25    29 1
   22    24    54 1
   23    22    24 1
   24    22    25 1
   25    22    37 1
   26    59    62 1
   27    56    58 1
   28    56    59 1
   29    54    56 1
   30    50    52 1
   31    50    54 1
   32    46    48 1
   33    46    50 1
   34    45    75 1
   35    43    45 1
   36    43    46 1
   37    43    58 1
   38    80    83 1
   39    77    79 1
   40    77    80 1
   41    75    77 1
   42    71    73 1
   43    71    75 1
   44    67    69 1
   45    67    71 1
   46    66    96 1
   47    64    66 1
   48    64    67 1
   49    64    79 1
   50   101   104 1
   51    98   100 1
   52    98   101 1
   53    96    98 1
   54    92    94 1
   55    92    96 1
   56    88    90 1
   57    88    92 1
   58    87   117 1
   59    85    87 1
   60    85    88 1
   61    85   100 1
   62   122   125 1
   63   119   121 1
   64   119   122 1
   65   117   119 1
   66   113   115 1
   67   113   117 1
   68   109   111 1
   69   109   113 1
   70   106   108 1
   71   106   109 1
   72   106   121 1
   73    20    21 1
   74    17    18 1
   75    17    19 1
   76    14    15 1
   77    12    13 1
   78    10    11 1
   79     8     9 1
   80     6     7 1
   81     4     5 1
   82     1     2 1
   83    41    42 1
   84    38    39 1
   85    38    40 1
   86    35    36 1
   87    33    34 1
   88    31    32 1
   89    29    30 1
   90    27    28 1
   91    25    26 1
   92    22    23 1
   93    62    63 1
   94    59    60 1
   95    59    61 1
   96    56    57 1
   97    54    55 1
   98    52    53 1
   99    50    51 1
  100    48    49 1
  101    46    47 1
  102    43    44 1
  103    83    84 1
  104    80    81 1
  105    80    82 1
  106    77    78 1
  107    75    76 1
  108    73    74 1
  109    71    72 1
  110    69    70 1
  111    67    68 1
  112    64    65 1
  113   104   105 1
  114   101   102 1
  115   101   103 1
  116    98    99 1
  117    96    97 1
  118    94    95 1
  119    92    93 1
  120    90    91 1
  121    88    89 1
  122    85    86 1
  123   125   126 1
  124   122   123 1
  125   122   124 1
  126   119   120 1
  127   117   118 1
  128   115   116 1
  129   113   114 1
  130   111   112 1
  131   109   110 1
  132   106   107 1
@<TRIPOS>SUBSTRUCTURE
      1 MGO               1 ****               0 ****  **** 
      2 MGO              22 ****               0 ****  **** 
      3 MGO              43 ****               0 ****  **** 
      4 MGO              64 ****               0 ****  **** 
      5 MGO              85 ****               0 ****  **** 
      6 MGO             106 ****               0 ****  **** 
