@<TRIPOS>MOLECULE
Cpptraj
  147   154     1     0     0
SMALL
No Charge or Current Charge


@<TRIPOS>ATOM
      1 C1          25.0180    17.1270    33.1740 C.3        1 MGO       0.304529
      2 H1          26.1160    17.1900    33.3040 H          1 MGO       0.090782
      3 O1          24.4370    18.4410    32.8720 O.3        1 MGO      -0.453070
      4 C2          24.7320    16.1840    32.0100 C.3        1 MGO       0.092199
      5 H2          25.2070    15.2170    32.1950 H          1 MGO       0.102926
      6 O2          25.2430    16.7480    30.7910 O.3        1 MGO      -0.586639
      7 HO2         25.4050    17.6990    30.9070 H          1 MGO       0.425065
      8 C3          23.2400    16.0020    31.8210 C.3        1 MGO       0.093211
      9 H3          22.7890    16.9540    31.5260 H          1 MGO       0.064468
     10 O3          23.0730    15.0170    30.7880 O.3        1 MGO      -0.592567
     11 HO3         23.7690    15.1860    30.1380 H          1 MGO       0.421017
     12 C4          22.6050    15.4970    33.1070 C.3        1 MGO       0.127621
     13 H4          22.9800    14.4930    33.3200 H          1 MGO       0.080661
     14 C5          22.9270    16.4260    34.2890 C.3        1 MGO       0.104343
     15 H5          22.5030    17.4080    34.0660 H          1 MGO       0.068516
     16 O5          24.4020    16.5760    34.3970 O.3        1 MGO      -0.427383
     17 C6          22.3650    16.0200    35.6590 C.3        1 MGO       0.141081
     18 H61         21.3700    16.4510    35.7910 H          1 MGO       0.057384
     19 H62         23.0070    16.4010    36.4560 H          1 MGO       0.057384
     20 O6          22.2620    14.5940    35.7640 O.3        1 MGO      -0.593555
     21 HO6         21.3900    14.3300    35.4430 H          1 MGO       0.422027
     22 C1          25.5850    22.4620    33.1740 C.3        2 MGO       0.304529
     23 H1          26.2210    23.3610    33.3020 H          2 MGO       0.090782
     24 O1          24.1950    22.8270    32.8710 O.3        2 MGO      -0.453070
     25 C2          26.1440    21.6500    32.0090 C.3        2 MGO       0.092199
     26 H2          27.1970    21.4190    32.1940 H          2 MGO       0.102926
     27 O2          26.0210    22.4000    30.7900 O.3        2 MGO      -0.586639
     28 HO2         25.3790    23.1200    30.9060 H          2 MGO       0.425065
     29 C3          25.3550    20.3700    31.8220 C.3        2 MGO       0.093211
     30 H3          24.3300    20.6100    31.5260 H          2 MGO       0.064468
     31 O3          26.0210    19.6260    30.7890 O.3        2 MGO      -0.592567
     32 HO3         26.3230    20.2750    30.1370 H          2 MGO       0.421017
     33 C4          25.3540    19.5600    33.1070 C.3        2 MGO       0.127621
     34 H4          26.3740    19.2260    33.3200 H          2 MGO       0.080661
     35 C5          24.8290    20.3900    34.2890 C.3        2 MGO       0.104343
     36 H5          23.7980    20.6720    34.0660 H          2 MGO       0.068516
     37 O5          25.6310    21.6380    34.3970 O.3        2 MGO      -0.427383
     38 C6          24.7960    19.6980    35.6590 C.3        2 MGO       0.141081
     39 H61         23.8390    19.1900    35.7920 H          2 MGO       0.057384
     40 H62         24.9000    20.4380    36.4560 H          2 MGO       0.057384
     41 O6          25.8480    18.7290    35.7650 O.3        2 MGO      -0.593555
     42 HO6         25.5100    17.8820    35.4430 H          2 MGO       0.422027
     43 C1          21.7670    26.2330    33.1730 C.3        3 MGO       0.304529
     44 H1          21.4610    27.2890    33.3020 H          3 MGO       0.090782
     45 O1          20.6150    25.3720    32.8710 O.3        3 MGO      -0.453070
     46 C2          22.7500    26.1620    32.0080 C.3        3 MGO       0.092199
     47 H2          23.5870    26.8410    32.1920 H          3 MGO       0.102926
     48 O2          22.0860    26.5340    30.7900 O.3        3 MGO      -0.586639
     49 HO2         21.1230    26.4810    30.9050 H          3 MGO       0.425065
     50 C3          23.2590    24.7470    31.8200 C.3        3 MGO       0.093211
     51 H3          22.4310    24.0960    31.5260 H          3 MGO       0.064468
     52 O3          24.2560    24.8040    30.7870 O.3        3 MGO      -0.592567
     53 HO3         23.9360    25.4450    30.1360 H          3 MGO       0.421017
     54 C4          23.8930    24.2420    33.1070 C.3        3 MGO       0.127621
     55 H4          24.7880    24.8320    33.3180 H          3 MGO       0.080661
     56 C5          22.9170    24.3500    34.2880 C.3        3 MGO       0.104343
     57 H5          22.0530    23.7190    34.0650 H          3 MGO       0.068516
     58 O5          22.4410    25.7550    34.3960 O.3        3 MGO      -0.427383
     59 C6          23.4370    23.8930    35.6580 C.3        3 MGO       0.141081
     60 H61         23.2380    22.8270    35.7910 H          3 MGO       0.057384
     61 H62         22.9230    24.4360    36.4560 H          3 MGO       0.057384
     62 O6          24.8510    24.1100    35.7640 O.3        3 MGO      -0.593555
     63 HO6         25.3020    23.3180    35.4420 H          3 MGO       0.422027
     64 C1          16.4380    25.5970    33.1750 C.3        4 MGO       0.304529
     65 H1          15.4220    26.0170    33.3030 H          4 MGO       0.090782
     66 O1          16.3940    24.1600    32.8720 O.3        4 MGO      -0.453070
     67 C2          17.1070    26.3220    32.0100 C.3        4 MGO       0.092199
     68 H2          17.0980    27.4000    32.1950 H          4 MGO       0.102926
     69 O2          16.4010    26.0350    30.7900 O.3        4 MGO      -0.586639
     70 HO2         15.8420    25.2500    30.9070 H          4 MGO       0.425065
     71 C3          18.5290    25.8390    31.8210 C.3        4 MGO       0.093211
     72 H3          18.5230    24.7860    31.5260 H          4 MGO       0.064468
     73 O3          19.1070    26.6530    30.7880 O.3        4 MGO      -0.592567
     74 HO3         18.4070    26.8030    30.1380 H          4 MGO       0.421017
     75 C4          19.3210    26.0180    33.1060 C.3        4 MGO       0.127621
     76 H4          19.4180    27.0860    33.3190 H          4 MGO       0.080661
     77 C5          18.6280    25.3220    34.2880 C.3        4 MGO       0.104343
     78 H5          18.5830    24.2530    34.0660 H          4 MGO       0.068516
     79 O5          17.2330    25.8260    34.3970 O.3        4 MGO      -0.427383
     80 C6          19.3100    25.4440    35.6580 C.3        4 MGO       0.141081
     81 H61         20.0200    24.6230    35.7910 H          4 MGO       0.057384
     82 H62         18.5660    25.3790    36.4560 H          4 MGO       0.057384
     83 O6          20.0210    26.6840    35.7640 O.3        4 MGO      -0.593555
     84 HO6         20.9220    26.5440    35.4420 H          4 MGO       0.422027
     85 C1          13.6130    21.0360    33.1750 C.3        5 MGO       0.304529
     86 H1          12.6510    20.5030    33.3040 H          5 MGO       0.090782
     87 O1          14.7080    20.1050    32.8720 O.3        5 MGO      -0.453070
     88 C2          13.4620    22.0100    32.0100 C.3        5 MGO       0.092199
     89 H2          12.6140    22.6750    32.1960 H          5 MGO       0.102926
     90 O2          13.2470    21.2810    30.7920 O.3        5 MGO      -0.586639
     91 HO2         13.5130    20.3540    30.9070 H          5 MGO       0.425065
     92 C3          14.7280    22.8220    31.8220 C.3        5 MGO       0.093211
     93 H3          15.5470    22.1600    31.5270 H          5 MGO       0.064468
     94 O3          14.4510    23.7810    30.7890 O.3        5 MGO      -0.592567
     95 HO3         13.8980    23.3270    30.1380 H          5 MGO       0.421017
     96 C4          15.0800    23.5510    33.1080 C.3        5 MGO       0.127621
     97 H4          14.3070    24.2940    33.3210 H          5 MGO       0.080661
     98 C5          15.1950    22.5750    34.2890 C.3        5 MGO       0.104343
     99 H5          16.0010    21.8740    34.0660 H          5 MGO       0.068516
    100 O5          13.9290    21.7990    34.3980 O.3        5 MGO      -0.427383
    101 C6          15.5240    23.1840    35.6590 C.3        5 MGO       0.141081
    102 H61         16.6080    23.2280    35.7910 H          5 MGO       0.057384
    103 H62         15.1100    22.5630    36.4570 H          5 MGO       0.057384
    104 O6          14.9980    24.5140    35.7650 O.3        5 MGO      -0.593555
    105 HO6         15.6690    25.1300    35.4430 H          5 MGO       0.422027
    106 C1          15.4180    15.9830    33.1740 C.3        6 MGO       0.304529
    107 H1          15.2350    14.8980    33.3020 H          6 MGO       0.090782
    108 O1          16.8280    16.2580    32.8710 O.3        6 MGO      -0.453070
    109 C2          14.5620    16.4730    32.0090 C.3        6 MGO       0.092199
    110 H2          13.5130    16.2250    32.1940 H          6 MGO       0.102926
    111 O2          14.9990    15.8490    30.7900 O.3        6 MGO      -0.586639
    112 HO2         15.8890    15.4800    30.9050 H          6 MGO       0.425065
    113 C3          14.7170    17.9680    31.8210 C.3        6 MGO       0.093211
    114 H3          15.7450    18.1950    31.5260 H          6 MGO       0.064468
    115 O3          13.7950    18.3500    30.7880 O.3        6 MGO      -0.592567
    116 HO3         13.8040    17.6340    30.1370 H          6 MGO       0.421017
    117 C4          14.3660    18.6980    33.1080 C.3        6 MGO       0.127621
    118 H4          13.3040    18.5560    33.3190 H          6 MGO       0.080661
    119 C5          15.2000    18.1780    34.2880 C.3        6 MGO       0.104343
    120 H5          16.2510    18.3710    34.0660 H          6 MGO       0.068516
    121 O5          15.0180    16.7050    34.3970 O.3        6 MGO      -0.427383
    122 C6          14.9280    18.8150    35.6580 C.3        6 MGO       0.141081
    123 H61         15.5700    19.6890    35.7910 H          6 MGO       0.057384
    124 H62         15.1570    18.1030    36.4560 H          6 MGO       0.057384
    125 O6          13.5610    19.2330    35.7640 O.3        6 MGO      -0.593555
    126 HO6         13.4980    20.1420    35.4440 H          6 MGO       0.422027
    127 C1          20.4940    14.2430    33.1740 C.3        7 MGO       0.304529
    128 H1          21.2280    13.4240    33.3020 H          7 MGO       0.090782
    129 O1          21.1570    15.5180    32.8710 O.3        7 MGO      -0.453070
    130 C2          19.5770    13.8790    32.0080 C.3        7 MGO       0.092199
    131 H2          19.1180    12.9050    32.1940 H          7 MGO       0.102926
    132 O2          20.3370    13.8330    30.7900 O.3        7 MGO      -0.586639
    133 HO2         21.1810    14.2980    30.9060 H          7 MGO       0.425065
    134 C3          18.5050    14.9330    31.8210 C.3        7 MGO       0.093211
    135 H3          18.9680    15.8790    31.5250 H          7 MGO       0.064468
    136 O3          17.6320    14.4500    30.7870 O.3        7 MGO      -0.592567
    137 HO3         18.1970    14.0120    30.1370 H          7 MGO       0.421017
    138 C4          17.7140    15.1140    33.1070 C.3        7 MGO       0.127621
    139 H4          17.1630    14.1950    33.3190 H          7 MGO       0.080661
    140 C5          18.6410    15.4410    34.2890 C.3        7 MGO       0.104343
    141 H5          19.1450    16.3840    34.0650 H          7 MGO       0.068516
    142 O5          19.6780    14.3820    34.3960 O.3        7 MGO      -0.427383
    143 C6          17.9730    15.6270    35.6590 C.3        7 MGO       0.141081
    144 H61         17.6900    16.6730    35.7920 H          7 MGO       0.057384
    145 H62         18.6720    15.3610    36.4550 H          7 MGO       0.057384
    146 O6          16.7940    14.8170    35.7640 O.3        7 MGO      -0.593555
    147 HO6         16.0440    15.3340    35.4420 H          7 MGO       0.422027
@<TRIPOS>BOND
     1    17    20 1   
     2    14    16 1   
     3    14    17 1   
     4    12    14 1   
     5    12   129 1   
     6     8    10 1   
     7     8    12 1   
     8     4     6 1   
     9     4     8 1   
    10     3    33 1   
    11     1     3 1   
    12     1     4 1   
    13     1    16 1   
    14    38    41 1   
    15    35    37 1   
    16    35    38 1   
    17    33    35 1   
    18    29    31 1   
    19    29    33 1   
    20    25    27 1   
    21    25    29 1   
    22    24    54 1   
    23    22    24 1   
    24    22    25 1   
    25    22    37 1   
    26    59    62 1   
    27    56    58 1   
    28    56    59 1   
    29    54    56 1   
    30    50    52 1   
    31    50    54 1   
    32    46    48 1   
    33    46    50 1   
    34    45    75 1   
    35    43    45 1   
    36    43    46 1   
    37    43    58 1   
    38    80    83 1   
    39    77    79 1   
    40    77    80 1   
    41    75    77 1   
    42    71    73 1   
    43    71    75 1   
    44    67    69 1   
    45    67    71 1   
    46    66    96 1   
    47    64    66 1   
    48    64    67 1   
    49    64    79 1   
    50   101   104 1   
    51    98   100 1   
    52    98   101 1   
    53    96    98 1   
    54    92    94 1   
    55    92    96 1   
    56    88    90 1   
    57    88    92 1   
    58    87   117 1   
    59    85    87 1   
    60    85    88 1   
    61    85   100 1   
    62   122   125 1   
    63   119   121 1   
    64   119   122 1   
    65   117   119 1   
    66   113   115 1   
    67   113   117 1   
    68   109   111 1   
    69   109   113 1   
    70   108   138 1   
    71   106   108 1   
    72   106   109 1   
    73   106   121 1   
    74   143   146 1   
    75   140   142 1   
    76   140   143 1   
    77   138   140 1   
    78   134   136 1   
    79   134   138 1   
    80   130   132 1   
    81   130   134 1   
    82   127   129 1   
    83   127   130 1   
    84   127   142 1   
    85    20    21 1   
    86    17    18 1   
    87    17    19 1   
    88    14    15 1   
    89    12    13 1   
    90    10    11 1   
    91     8     9 1   
    92     6     7 1   
    93     4     5 1   
    94     1     2 1   
    95    41    42 1   
    96    38    39 1   
    97    38    40 1   
    98    35    36 1   
    99    33    34 1   
   100    31    32 1   
   101    29    30 1   
   102    27    28 1   
   103    25    26 1   
   104    22    23 1   
   105    62    63 1   
   106    59    60 1   
   107    59    61 1   
   108    56    57 1   
   109    54    55 1   
   110    52    53 1   
   111    50    51 1   
   112    48    49 1   
   113    46    47 1   
   114    43    44 1   
   115    83    84 1   
   116    80    81 1   
   117    80    82 1   
   118    77    78 1   
   119    75    76 1   
   120    73    74 1   
   121    71    72 1   
   122    69    70 1   
   123    67    68 1   
   124    64    65 1   
   125   104   105 1   
   126   101   102 1   
   127   101   103 1   
   128    98    99 1   
   129    96    97 1   
   130    94    95 1   
   131    92    93 1   
   132    90    91 1   
   133    88    89 1   
   134    85    86 1   
   135   125   126 1   
   136   122   123 1   
   137   122   124 1   
   138   119   120 1   
   139   117   118 1   
   140   115   116 1   
   141   113   114 1   
   142   111   112 1   
   143   109   110 1   
   144   106   107 1   
   145   146   147 1   
   146   143   144 1   
   147   143   145 1   
   148   140   141 1   
   149   138   139 1   
   150   136   137 1   
   151   134   135 1   
   152   132   133 1   
   153   130   131 1   
   154   127   128 1   
@<TRIPOS>SUBSTRUCTURE
     1 MGO         1 TEMP              0 ****  ****    0 ROOT
