@<TRIPOS>MOLECULE
Cpptraj generated mol2 file.
   13    13     1     0     0
SMALL
USER_CHARGES


@<TRIPOS>ATOM
      1 C1         20.2060   19.8470   33.4290 cy         1 CBU     -0.089350
      2 H2         19.2970   20.2600   32.9750 hc         1 CBU      0.050728
      3 H3         20.8850   19.5370   32.6280 hc         1 CBU      0.050728
      4 C2         19.9580   18.8040   34.5620 cy         1 CBU     -0.108839
      5 H4         19.0780   18.1660   34.4440 hc         1 CBU      0.057982
      6 H5         20.8190   18.1680   34.7990 hc         1 CBU      0.057982
      7 C3         19.7790   20.0430   35.4870 cy         1 CBU      0.118166
      8 H6         18.7780   20.4950   35.4440 h1         1 CBU      0.042724
      9 C4         20.8320   20.7210   34.5600 cy         1 CBU     -0.108839
     10 H7         21.8760   20.4890   34.7950 hc         1 CBU      0.057982
     11 H8         20.7360   21.8050   34.4390 hc         1 CBU      0.057982
     12 O1         20.2060   19.8470   36.8260 oh         1 CBU     -0.587471
     13 H1         20.1320   20.7370   37.2780 ho         1 CBU      0.400225
@<TRIPOS>BOND
    1     7     9 1
    2     7    12 1
    3     4     7 1
    4     1     4 1
    5     1     9 1
    6    12    13 1
    7     9    10 1
    8     9    11 1
    9     7     8 1
   10     4     5 1
   11     4     6 1
   12     1     2 1
   13     1     3 1
@<TRIPOS>SUBSTRUCTURE
      1 CBU               1 ****               0 ****  **** 
