@<TRIPOS>MOLECULE
Cpptraj
  147   154     1     0     0
SMALL
No Charge or Current Charge


@<TRIPOS>ATOM
      1 C1          15.7090    15.7290    34.2100 C.3        1 MGO       0.304529
      2 H1          14.6220    15.5570    34.0800 H          1 MGO       0.090782
      3 O1          15.9980    17.1360    34.5120 O.3        1 MGO      -0.453070
      4 C2          16.1900    14.8680    35.3740 C.3        1 MGO       0.092199
      5 H2          15.9300    13.8220    35.1890 H          1 MGO       0.102926
      6 O2          15.5690    15.3100    36.5930 O.3        1 MGO      -0.586639
      7 HO2         15.2100    16.2050    36.4770 H          1 MGO       0.425065
      8 C3          17.6860    15.0060    35.5630 C.3        1 MGO       0.093211
      9 H3          17.9240    16.0320    35.8580 H          1 MGO       0.064468
     10 O3          18.0580    14.0790    36.5960 O.3        1 MGO      -0.592567
     11 HO3         17.3430    14.0970    37.2460 H          1 MGO       0.421017
     12 C4          18.4130    14.6490    34.2760 C.3        1 MGO       0.127621
     13 H4          18.2610    13.5870    34.0640 H          1 MGO       0.080661
     14 C5          17.9020    15.4880    33.0950 C.3        1 MGO       0.104343
     15 H5          18.1070    16.5380    33.3180 H          1 MGO       0.068516
     16 O5          16.4290    15.3210    32.9870 O.3        1 MGO      -0.427383
     17 C6          18.5380    15.2100    31.7250 C.3        1 MGO       0.141081
     18 H61         19.4180    15.8430    31.5930 H          1 MGO       0.057384
     19 H62         17.8280    15.4450    30.9280 H          1 MGO       0.057384
     20 O6          18.9410    13.8390    31.6200 O.3        1 MGO      -0.593555
     21 HO6         19.8490    13.7660    31.9410 H          1 MGO       0.422027
     22 C1          14.0220    20.8220    34.2100 C.3        2 MGO       0.304529
     23 H1          13.2100    21.5640    34.0820 H          2 MGO       0.090782
     24 O1          15.3040    21.4730    34.5130 O.3        2 MGO      -0.453070
     25 C2          13.6480    19.9080    35.3750 C.3        2 MGO       0.092199
     26 H2          12.6690    19.4590    35.1900 H          2 MGO       0.102926
     27 O2          13.6100    20.6690    36.5930 O.3        2 MGO      -0.586639
     28 HO2         14.0840    21.5090    36.4780 H          2 MGO       0.425065
     29 C3          14.6910    18.8260    35.5620 C.3        2 MGO       0.093211
     30 H3          15.6420    19.2790    35.8580 H          2 MGO       0.064468
     31 O3          14.1980    17.9570    36.5950 O.3        2 MGO      -0.592567
     32 HO3         13.7660    18.5270    37.2470 H          2 MGO       0.421017
     33 C4          14.8640    18.0340    34.2770 C.3        2 MGO       0.127621
     34 H4          13.9390    17.4920    34.0640 H          2 MGO       0.080661
     35 C5          15.2010    18.9570    33.0950 C.3        2 MGO       0.104343
     36 H5          16.1490    19.4520    33.3180 H          2 MGO       0.068516
     37 O5          14.1520    20.0060    32.9870 O.3        2 MGO      -0.427383
     38 C6          15.3800    18.2880    31.7250 C.3        2 MGO       0.141081
     39 H61         16.4240    17.9940    31.5920 H          2 MGO       0.057384
     40 H62         15.1210    18.9890    30.9280 H          2 MGO       0.057384
     41 O6          14.5580    17.1170    31.6190 O.3        2 MGO      -0.593555
     42 HO6         15.0680    16.3620    31.9410 H          2 MGO       0.422027
     43 C1          16.9520    25.3170    34.2110 C.3        3 MGO       0.304529
     44 H1          17.0260    26.4140    34.0820 H          3 MGO       0.090782
     45 O1          18.2610    24.7200    34.5130 O.3        3 MGO      -0.453070
     46 C2          16.0070    25.0390    35.3760 C.3        3 MGO       0.092199
     47 H2          15.0440    25.5240    35.1910 H          3 MGO       0.102926
     48 O2          16.5760    25.5440    36.5940 O.3        3 MGO      -0.586639
     49 HO2         17.5280    25.6970    36.4790 H          3 MGO       0.425065
     50 C3          15.8100    23.5490    35.5630 C.3        3 MGO       0.093211
     51 H3          16.7570    23.0880    35.8580 H          3 MGO       0.064468
     52 O3          14.8240    23.3930    36.5970 O.3        3 MGO      -0.592567
     53 HO3         15.0000    24.0860    37.2480 H          3 MGO       0.421017
     54 C4          15.2980    22.9210    34.2770 C.3        3 MGO       0.127621
     55 H4          14.2970    23.3060    34.0660 H          3 MGO       0.080661
     56 C5          16.2280    23.2320    33.0960 C.3        3 MGO       0.104343
     57 H5          17.2070    22.7990    33.3190 H          3 MGO       0.068516
     58 O5          16.3960    24.7070    32.9880 O.3        3 MGO      -0.427383
     59 C6          15.8170    22.6750    31.7260 C.3        3 MGO       0.141081
     60 H61         16.2370    21.6770    31.5930 H          3 MGO       0.057384
     61 H62         16.2040    23.3150    30.9280 H          3 MGO       0.057384
     62 O6          14.3890    22.5880    31.6200 O.3        3 MGO      -0.593555
     63 HO6         14.1170    21.7180    31.9420 H          3 MGO       0.422027
     64 C1          22.2940    25.8280    34.2090 C.3        4 MGO       0.304529
     65 H1          23.1980    26.4540    34.0810 H          4 MGO       0.090782
     66 O1          22.6420    24.4340    34.5120 O.3        4 MGO      -0.453070
     67 C2          21.4860    26.3950    35.3740 C.3        4 MGO       0.092199
     68 H2          21.2670    27.4500    35.1890 H          4 MGO       0.102926
     69 O2          22.2380    26.2640    36.5930 O.3        4 MGO      -0.586639
     70 HO2         22.9500    25.6150    36.4770 H          4 MGO       0.425065
     71 C3          20.1990    25.6200    35.5620 C.3        4 MGO       0.093211
     72 H3          20.4290    24.5920    35.8580 H          4 MGO       0.064468
     73 O3          19.4620    26.2930    36.5960 O.3        4 MGO      -0.592567
     74 HO3         20.1140    26.5880    37.2460 H          4 MGO       0.421017
     75 C4          19.3870    25.6270    34.2770 C.3        4 MGO       0.127621
     76 H4          19.0660    26.6490    34.0650 H          4 MGO       0.080661
     77 C5          20.2120    25.0930    33.0960 C.3        4 MGO       0.104343
     78 H5          20.4840    24.0590    33.3180 H          4 MGO       0.068516
     79 O5          21.4690    25.8820    32.9870 O.3        4 MGO      -0.427383
     80 C6          19.5200    25.0690    31.7250 C.3        4 MGO       0.141081
     81 H61         19.0010    24.1160    31.5930 H          4 MGO       0.057384
     82 H62         20.2610    25.1630    30.9280 H          4 MGO       0.057384
     83 O6          18.5620    26.1290    31.6200 O.3        4 MGO      -0.593555
     84 HO6         17.7120    25.8010    31.9420 H          4 MGO       0.422027
     85 C1          26.0230    21.9700    34.2090 C.3        5 MGO       0.304529
     86 H1          27.0770    21.6540    34.0800 H          5 MGO       0.090782
     87 O1          25.1510    20.8290    34.5120 O.3        5 MGO      -0.453070
     88 C2          25.9640    22.9550    35.3740 C.3        5 MGO       0.092199
     89 H2          26.6520    23.7850    35.1880 H          5 MGO       0.102926
     90 O2          26.3300    22.2870    36.5920 O.3        5 MGO      -0.586639
     91 HO2         26.2670    21.3260    36.4770 H          5 MGO       0.425065
     92 C3          24.5540    23.4790    35.5620 C.3        5 MGO       0.093211
     93 H3          23.8950    22.6590    35.8570 H          5 MGO       0.064468
     94 O3          24.6210    24.4750    36.5950 O.3        5 MGO      -0.592567
     95 HO3         25.2580    24.1490    37.2460 H          5 MGO       0.421017
     96 C4          24.0560    24.1170    34.2760 C.3        5 MGO       0.127621
     97 H4          24.6530    25.0070    34.0630 H          5 MGO       0.080661
     98 C5          24.1520    23.1390    33.0950 C.3        5 MGO       0.104343
     99 H5          23.5120    22.2830    33.3180 H          5 MGO       0.068516
    100 O5          25.5520    22.6500    32.9860 O.3        5 MGO      -0.427383
    101 C6          23.7000    23.6640    31.7240 C.3        5 MGO       0.141081
    102 H61         22.6320    23.4770    31.5920 H          5 MGO       0.057384
    103 H62         24.2370    23.1440    30.9270 H          5 MGO       0.057384
    104 O6          23.9320    25.0750    31.6190 O.3        5 MGO      -0.593555
    105 HO6         23.1450    25.5350    31.9410 H          5 MGO       0.422027
    106 C1          25.3340    16.6490    34.2100 C.3        6 MGO       0.304529
    107 H1          25.7430    15.6280    34.0820 H          6 MGO       0.090782
    108 O1          23.8970    16.6190    34.5130 O.3        6 MGO      -0.453070
    109 C2          26.0660    17.3100    35.3750 C.3        6 MGO       0.092199
    110 H2          27.1430    17.2900    35.1900 H          6 MGO       0.102926
    111 O2          25.7720    16.6090    36.5940 O.3        6 MGO      -0.586639
    112 HO2         24.9800    16.0580    36.4780 H          6 MGO       0.425065
    113 C3          25.5970    18.7390    35.5630 C.3        6 MGO       0.093211
    114 H3          24.5430    18.7420    35.8580 H          6 MGO       0.064468
    115 O3          26.4170    19.3080    36.5960 O.3        6 MGO      -0.592567
    116 HO3         26.5600    18.6060    37.2470 H          6 MGO       0.421017
    117 C4          25.7840    19.5260    34.2760 C.3        6 MGO       0.127621
    118 H4          26.8530    19.6140    34.0650 H          6 MGO       0.080661
    119 C5          25.0800    18.8410    33.0960 C.3        6 MGO       0.104343
    120 H5          24.0130    18.8070    33.3180 H          6 MGO       0.068516
    121 O5          25.5710    17.4400    32.9870 O.3        6 MGO      -0.427383
    122 C6          25.2110    19.5210    31.7260 C.3        6 MGO       0.141081
    123 H61         24.3980    20.2380    31.5930 H          6 MGO       0.057384
    124 H62         25.1390    18.7770    30.9280 H          6 MGO       0.057384
    125 O6          26.4580    20.2200    31.6190 O.3        6 MGO      -0.593555
    126 HO6         26.3260    21.1220    31.9400 H          6 MGO       0.422027
    127 C1          20.7420    13.8720    34.2100 C.3        7 MGO       0.304529
    128 H1          20.1990    12.9150    34.0820 H          7 MGO       0.090782
    129 O1          19.8240    14.9760    34.5130 O.3        7 MGO      -0.453070
    130 C2          21.7160    13.7100    35.3760 C.3        7 MGO       0.092199
    131 H2          22.3720    12.8550    35.1900 H          7 MGO       0.102926
    132 O2          20.9830    13.5040    36.5930 O.3        7 MGO      -0.586639
    133 HO2         20.0600    13.7790    36.4780 H          7 MGO       0.425065
    134 C3          22.5400    14.9670    35.5630 C.3        7 MGO       0.093211
    135 H3          21.8860    15.7940    35.8580 H          7 MGO       0.064468
    136 O3          23.4960    14.6820    36.5970 O.3        7 MGO      -0.592567
    137 HO3         23.0360    14.1340    37.2470 H          7 MGO       0.421017
    138 C4          23.2740    15.3130    34.2770 C.3        7 MGO       0.127621
    139 H4          24.0080    14.5310    34.0650 H          7 MGO       0.080661
    140 C5          22.2990    15.4360    33.0950 C.3        7 MGO       0.104343
    141 H5          21.6050    16.2500    33.3180 H          7 MGO       0.068516
    142 O5          21.5100    14.1800    32.9880 O.3        7 MGO      -0.427383
    143 C6          22.9120    15.7590    31.7250 C.3        7 MGO       0.141081
    144 H61         22.9670    16.8420    31.5920 H          7 MGO       0.057384
    145 H62         22.2860    15.3510    30.9290 H          7 MGO       0.057384
    146 O6          24.2360    15.2190    31.6200 O.3        7 MGO      -0.593555
    147 HO6         24.8590    15.8830    31.9420 H          7 MGO       0.422027
@<TRIPOS>BOND
     1    17    20 1   
     2    14    16 1   
     3    14    17 1   
     4    12    14 1   
     5    12   129 1   
     6     8    10 1   
     7     8    12 1   
     8     4     6 1   
     9     4     8 1   
    10     3    33 1   
    11     1     3 1   
    12     1     4 1   
    13     1    16 1   
    14    38    41 1   
    15    35    37 1   
    16    35    38 1   
    17    33    35 1   
    18    29    31 1   
    19    29    33 1   
    20    25    27 1   
    21    25    29 1   
    22    24    54 1   
    23    22    24 1   
    24    22    25 1   
    25    22    37 1   
    26    59    62 1   
    27    56    58 1   
    28    56    59 1   
    29    54    56 1   
    30    50    52 1   
    31    50    54 1   
    32    46    48 1   
    33    46    50 1   
    34    45    75 1   
    35    43    45 1   
    36    43    46 1   
    37    43    58 1   
    38    80    83 1   
    39    77    79 1   
    40    77    80 1   
    41    75    77 1   
    42    71    73 1   
    43    71    75 1   
    44    67    69 1   
    45    67    71 1   
    46    66    96 1   
    47    64    66 1   
    48    64    67 1   
    49    64    79 1   
    50   101   104 1   
    51    98   100 1   
    52    98   101 1   
    53    96    98 1   
    54    92    94 1   
    55    92    96 1   
    56    88    90 1   
    57    88    92 1   
    58    87   117 1   
    59    85    87 1   
    60    85    88 1   
    61    85   100 1   
    62   122   125 1   
    63   119   121 1   
    64   119   122 1   
    65   117   119 1   
    66   113   115 1   
    67   113   117 1   
    68   109   111 1   
    69   109   113 1   
    70   108   138 1   
    71   106   108 1   
    72   106   109 1   
    73   106   121 1   
    74   143   146 1   
    75   140   142 1   
    76   140   143 1   
    77   138   140 1   
    78   134   136 1   
    79   134   138 1   
    80   130   132 1   
    81   130   134 1   
    82   127   129 1   
    83   127   130 1   
    84   127   142 1   
    85    20    21 1   
    86    17    18 1   
    87    17    19 1   
    88    14    15 1   
    89    12    13 1   
    90    10    11 1   
    91     8     9 1   
    92     6     7 1   
    93     4     5 1   
    94     1     2 1   
    95    41    42 1   
    96    38    39 1   
    97    38    40 1   
    98    35    36 1   
    99    33    34 1   
   100    31    32 1   
   101    29    30 1   
   102    27    28 1   
   103    25    26 1   
   104    22    23 1   
   105    62    63 1   
   106    59    60 1   
   107    59    61 1   
   108    56    57 1   
   109    54    55 1   
   110    52    53 1   
   111    50    51 1   
   112    48    49 1   
   113    46    47 1   
   114    43    44 1   
   115    83    84 1   
   116    80    81 1   
   117    80    82 1   
   118    77    78 1   
   119    75    76 1   
   120    73    74 1   
   121    71    72 1   
   122    69    70 1   
   123    67    68 1   
   124    64    65 1   
   125   104   105 1   
   126   101   102 1   
   127   101   103 1   
   128    98    99 1   
   129    96    97 1   
   130    94    95 1   
   131    92    93 1   
   132    90    91 1   
   133    88    89 1   
   134    85    86 1   
   135   125   126 1   
   136   122   123 1   
   137   122   124 1   
   138   119   120 1   
   139   117   118 1   
   140   115   116 1   
   141   113   114 1   
   142   111   112 1   
   143   109   110 1   
   144   106   107 1   
   145   146   147 1   
   146   143   144 1   
   147   143   145 1   
   148   140   141 1   
   149   138   139 1   
   150   136   137 1   
   151   134   135 1   
   152   132   133 1   
   153   130   131 1   
   154   127   128 1   
@<TRIPOS>SUBSTRUCTURE
     1 MGO         1 TEMP              0 ****  ****    0 ROOT
