@<TRIPOS>MOLECULE
Cpptraj
   13    13     1     0     0
SMALL
No Charge or Current Charge


@<TRIPOS>ATOM
      1 C1          19.6810    18.9970    34.0340 C.3        1 CBU      -0.089350
      2 H2          18.7460    19.3470    33.5800 H          1 CBU       0.050728
      3 H3          20.3790    18.7340    33.2330 H          1 CBU       0.050728
      4 C2          19.5060    17.9390    35.1670 C.3        1 CBU      -0.108839
      5 H4          18.6720    17.2420    35.0490 H          1 CBU       0.057982
      6 H5          20.4090    17.3640    35.4040 H          1 CBU       0.057982
      7 C3          19.2410    19.1640    36.0920 C.3        1 CBU       0.118166
      8 H6          18.2120    19.5460    36.0490 H          1 CBU       0.042724
      9 C4          20.2450    19.9130    35.1650 C.3        1 CBU      -0.108839
     10 H7          21.3030    19.7530    35.4000 H          1 CBU       0.057982
     11 H8          20.0740    20.9860    35.0440 H          1 CBU       0.057982
     12 O1          19.6810    18.9970    37.4310 O.3        1 CBU      -0.587471
     13 H1          19.5460    19.8800    37.8830 H          1 CBU       0.400225
@<TRIPOS>BOND
     1     7     9 1   
     2     7    12 1   
     3     4     7 1   
     4     1     4 1   
     5     1     9 1   
     6    12    13 1   
     7     9    10 1   
     8     9    11 1   
     9     7     8 1   
    10     4     5 1   
    11     4     6 1   
    12     1     2 1   
    13     1     3 1   
@<TRIPOS>SUBSTRUCTURE
     1 CBU         1 TEMP              0 ****  ****    0 ROOT
