@<TRIPOS>MOLECULE
Cpptraj generated mol2 file.
  126   132     6     0     0
SMALL
USER_CHARGES


@<TRIPOS>ATOM
      1 C1         15.9270   15.3300   34.3730 c3         1 MGO      0.304529
      2 H1         14.8380   15.1950   34.2170 h2         1 MGO      0.090782
      3 O1         16.2480   16.7140   34.7450 os         1 MGO     -0.453070
      4 C2         16.3710   14.4170   35.5110 c3         1 MGO      0.092199
      5 H2         16.1180   13.3780   35.2770 h1         1 MGO      0.102926
      6 O2         15.7100   14.8190   36.7220 oh         1 MGO     -0.586639
      7 HO2        15.3940   15.7300   36.6320 ho         1 MGO      0.425065
      8 C3         17.8600   14.5550   35.7510 c3         1 MGO      0.093211
      9 H3         18.0740   15.5680   36.1050 h1         1 MGO      0.064468
     10 O3         18.2130   13.5890   36.7530 oh         1 MGO     -0.592567
     11 HO3        17.4790   13.5640   37.3830 ho         1 MGO      0.421017
     12 C4         18.6490   14.2780   34.4800 c3         1 MGO      0.127621
     13 H4         18.5810   13.2140   34.2410 h1         1 MGO      0.080661
     14 C5         18.1410   15.1230   33.2970 c3         1 MGO      0.104343
     15 H5         18.3310   16.1710   33.5370 h1         1 MGO      0.068516
     16 O5         16.6700   14.9470   33.1580 os         1 MGO     -0.427383
     17 C6         18.7940   14.8780   31.9290 c3         1 MGO      0.141081
     18 H61        19.6350   15.5630   31.7950 h1         1 MGO      0.057384
     19 H62        18.0740   15.0670   31.1290 h1         1 MGO      0.057384
     20 O6         19.2800   13.5330   31.8280 oh         1 MGO     -0.593555
     21 HO6        20.1910   13.5200   32.1500 ho         1 MGO      0.422027
     22 C1         14.7530   20.5750   34.3410 c3         2 MGO      0.304529
     23 H1         14.0920   21.4510   34.1850 h2         2 MGO      0.090782
     24 O1         16.1070   20.9870   34.7280 os         2 MGO     -0.453070
     25 C2         14.1720   19.7260   35.4680 c3         2 MGO      0.092199
     26 H2         13.1490   19.4280   35.2210 h1         2 MGO      0.102926
     27 O2         14.1810   20.4900   36.6840 oh         2 MGO     -0.586639
     28 HO2        14.8120   21.2210   36.6050 ho         2 MGO      0.425065
     29 C3         15.0370   18.5050   35.7050 c3         2 MGO      0.093211
     30 H3         16.0170   18.8230   36.0710 h1         2 MGO      0.064468
     31 O3         14.3660   17.7070   36.6950 oh         2 MGO     -0.592567
     32 HO3        13.9730   18.3260   37.3260 ho         2 MGO      0.421017
     33 C4         15.2020   17.6910   34.4300 c3         2 MGO      0.127621
     34 H4         14.2490   17.2190   34.1780 h1         2 MGO      0.080661
     35 C5         15.6890   18.5620   33.2560 c3         2 MGO      0.104343
     36 H5         16.6900   18.9190   33.5080 h1         2 MGO      0.068516
     37 O5         14.8030   19.7490   33.1210 os         2 MGO     -0.427383
     38 C6         15.8150   17.8840   31.8840 c3         2 MGO      0.141081
     39 H61        16.8290   17.5000   31.7560 h1         2 MGO      0.057384
     40 H62        15.6250   18.6080   31.0890 h1         2 MGO      0.057384
     41 O6         14.8950   16.7930   31.7680 oh         2 MGO     -0.593555
     42 HO6        15.3350   15.9930   32.0880 ho         2 MGO      0.422027
     43 C1         18.7080   24.2160   34.3710 c3         3 MGO      0.304529
     44 H1         19.1370   25.2250   34.2260 h2         3 MGO      0.090782
     45 O1         19.7370   23.2450   34.7590 os         3 MGO     -0.453070
     46 C2         17.6720   24.2840   35.4890 c3         3 MGO      0.092199
     47 H2         16.9040   25.0220   35.2410 h1         3 MGO      0.102926
     48 O2         18.3260   24.6510   36.7140 oh         3 MGO     -0.586639
     49 HO2        19.2750   24.4700   36.6410 ho         3 MGO      0.425065
     50 C3         17.0430   22.9230   35.7100 c3         3 MGO      0.093211
     51 H3         17.8050   22.2300   36.0770 h1         3 MGO      0.064468
     52 O3         16.0090   23.0980   36.6940 oh         3 MGO     -0.592567
     53 HO3        16.3430   23.7420   37.3310 ho         3 MGO      0.421017
     54 C4         16.4340   22.3820   34.4260 c3         3 MGO      0.127621
     55 H4         15.5510   22.9750   34.1700 h1         3 MGO      0.080661
     56 C5         17.4420   22.4060   33.2620 c3         3 MGO      0.104343
     57 H5         18.2480   21.7170   33.5150 h1         3 MGO      0.068516
     58 O5         18.0290   23.7670   33.1400 os         3 MGO     -0.427383
     59 C6         16.9310   21.9680   31.8810 c3         3 MGO      0.141081
     60 H61        17.1070   20.8980   31.7470 h1         3 MGO      0.057384
     61 H62        17.4700   22.5000   31.0940 h1         3 MGO      0.057384
     62 O6         15.5250   22.2190   31.7540 oh         3 MGO     -0.593555
     63 HO6        15.0530   21.4370   32.0650 ho         3 MGO      0.422027
     64 C1         23.8360   22.6120   34.4330 c3         4 MGO      0.304529
     65 H1         24.9280   22.7450   34.3000 h2         4 MGO      0.090782
     66 O1         23.5080   21.2300   34.8080 os         4 MGO     -0.453070
     67 C2         23.3690   23.5340   35.5540 c3         4 MGO      0.092199
     68 H2         23.6270   24.5700   35.3170 h1         4 MGO      0.102926
     69 O2         24.0020   23.1410   36.7830 oh         4 MGO     -0.586639
     70 HO2        24.3200   22.2280   36.7060 ho         4 MGO      0.425065
     71 C3         21.8750   23.3960   35.7630 c3         4 MGO      0.093211
     72 H3         21.6530   22.3850   36.1190 h1         4 MGO      0.064468
     73 O3         21.4990   24.3690   36.7480 oh         4 MGO     -0.592567
     74 HO3        22.2180   24.3980   37.3950 ho         4 MGO      0.421017
     75 C4         21.1130   23.6630   34.4720 c3         4 MGO      0.127621
     76 H4         21.1860   24.7250   34.2260 h1         4 MGO      0.080661
     77 C5         21.6470   22.8100   33.3070 c3         4 MGO      0.104343
     78 H5         21.4520   21.7650   33.5510 h1         4 MGO      0.068516
     79 O5         23.1200   22.9840   33.2000 os         4 MGO     -0.427383
     80 C6         21.0240   23.0440   31.9230 c3         4 MGO      0.141081
     81 H61        20.1870   22.3600   31.7750 h1         4 MGO      0.057384
     82 H62        21.7610   22.8510   31.1410 h1         4 MGO      0.057384
     83 O6         20.5400   24.3880   31.8010 oh         4 MGO     -0.593555
     84 HO6        19.6230   24.4030   32.1040 ho         4 MGO      0.422027
     85 C1         25.0110   17.3670   34.4650 c3         5 MGO      0.304529
     86 H1         25.6740   16.4890   34.3300 h2         5 MGO      0.090782
     87 O1         23.6470   16.9580   34.8260 os         5 MGO     -0.453070
     88 C2         25.5670   18.2220   35.5980 c3         5 MGO      0.092199
     89 H2         26.5940   18.5210   35.3720 h1         5 MGO      0.102926
     90 O2         25.5320   17.4680   36.8190 oh         5 MGO     -0.586639
     91 HO2        24.9020   16.7380   36.7310 ho         5 MGO      0.425065
     92 C3         24.6980   19.4470   35.8080 c3         5 MGO      0.093211
     93 H3         23.7100   19.1320   36.1540 h1         5 MGO      0.064468
     94 O3         25.3460   20.2510   36.8070 oh         5 MGO     -0.592567
     95 HO3        25.7250   19.6380   37.4500 ho         5 MGO      0.421017
     96 C4         24.5600   20.2510   34.5230 c3         5 MGO      0.127621
     97 H4         25.5190   20.7210   34.2890 h1         5 MGO      0.080661
     98 C5         24.0990   19.3710   33.3460 c3         5 MGO      0.104343
     99 H5         23.0930   19.0140   33.5780 h1         5 MGO      0.068516
    100 O5         24.9870   18.1830   33.2370 os         5 MGO     -0.427383
    101 C6         24.0040   20.0390   31.9670 c3         5 MGO      0.141081
    102 H61        22.9920   20.4210   31.8140 h1         5 MGO      0.057384
    103 H62        24.2100   19.3090   31.1800 h1         5 MGO      0.057384
    104 O6         24.9260   21.1300   31.8610 oh         5 MGO     -0.593555
    105 HO6        24.4780   21.9300   32.1670 ho         5 MGO      0.422027
    106 C1         21.0560   13.7260   34.4350 c3         6 MGO      0.304529
    107 H1         20.6300   12.7140   34.2870 h2         6 MGO      0.090782
    108 O1         20.0180   14.6990   34.7950 os         6 MGO     -0.453070
    109 C2         22.0670   13.6650   35.5750 c3         6 MGO      0.092199
    110 H2         22.8410   12.9250   35.3510 h1         6 MGO      0.102926
    111 O2         21.3860   13.3080   36.7900 oh         6 MGO     -0.586639
    112 HO2        20.4390   13.4880   36.6950 ho         6 MGO      0.425065
    113 C3         22.6900   15.0270   35.8010 c3         6 MGO      0.093211
    114 H3         21.9200   15.7230   36.1470 h1         6 MGO      0.064468
    115 O3         23.7030   14.8610   36.8070 oh         6 MGO     -0.592567
    116 HO3        23.3560   14.2210   37.4430 ho         6 MGO      0.421017
    117 C4         23.3280   15.5580   34.5260 c3         6 MGO      0.127621
    118 H4         24.2160   14.9640   34.2950 h1         6 MGO      0.080661
    119 C5         22.3460   15.5270   33.3420 c3         6 MGO      0.104343
    120 H5         21.5330   16.2190   33.5710 h1         6 MGO      0.068516
    121 O5         21.7620   14.1640   33.2170 os         6 MGO     -0.427383
    122 C6         22.8870   15.9550   31.9700 c3         6 MGO      0.141081
    123 H61        22.7150   17.0240   31.8230 h1         6 MGO      0.057384
    124 H62        22.3650   15.4170   31.1740 h1         6 MGO      0.057384
    125 O6         24.2960   15.7020   31.8740 oh         6 MGO     -0.593555
    126 HO6        24.7620   16.4880   32.1900 ho         6 MGO      0.422027
@<TRIPOS>BOND
    1    17    20 1
    2    14    16 1
    3    14    17 1
    4    12    14 1
    5    12   108 1
    6     8    10 1
    7     8    12 1
    8     4     6 1
    9     4     8 1
   10     3    33 1
   11     1     3 1
   12     1     4 1
   13     1    16 1
   14    38    41 1
   15    35    37 1
   16    35    38 1
   17    33    35 1
   18    29    31 1
   19    29    33 1
   20    25    27 1
   21    25    29 1
   22    24    54 1
   23    22    24 1
   24    22    25 1
   25    22    37 1
   26    59    62 1
   27    56    58 1
   28    56    59 1
   29    54    56 1
   30    50    52 1
   31    50    54 1
   32    46    48 1
   33    46    50 1
   34    45    75 1
   35    43    45 1
   36    43    46 1
   37    43    58 1
   38    80    83 1
   39    77    79 1
   40    77    80 1
   41    75    77 1
   42    71    73 1
   43    71    75 1
   44    67    69 1
   45    67    71 1
   46    66    96 1
   47    64    66 1
   48    64    67 1
   49    64    79 1
   50   101   104 1
   51    98   100 1
   52    98   101 1
   53    96    98 1
   54    92    94 1
   55    92    96 1
   56    88    90 1
   57    88    92 1
   58    87   117 1
   59    85    87 1
   60    85    88 1
   61    85   100 1
   62   122   125 1
   63   119   121 1
   64   119   122 1
   65   117   119 1
   66   113   115 1
   67   113   117 1
   68   109   111 1
   69   109   113 1
   70   106   108 1
   71   106   109 1
   72   106   121 1
   73    20    21 1
   74    17    18 1
   75    17    19 1
   76    14    15 1
   77    12    13 1
   78    10    11 1
   79     8     9 1
   80     6     7 1
   81     4     5 1
   82     1     2 1
   83    41    42 1
   84    38    39 1
   85    38    40 1
   86    35    36 1
   87    33    34 1
   88    31    32 1
   89    29    30 1
   90    27    28 1
   91    25    26 1
   92    22    23 1
   93    62    63 1
   94    59    60 1
   95    59    61 1
   96    56    57 1
   97    54    55 1
   98    52    53 1
   99    50    51 1
  100    48    49 1
  101    46    47 1
  102    43    44 1
  103    83    84 1
  104    80    81 1
  105    80    82 1
  106    77    78 1
  107    75    76 1
  108    73    74 1
  109    71    72 1
  110    69    70 1
  111    67    68 1
  112    64    65 1
  113   104   105 1
  114   101   102 1
  115   101   103 1
  116    98    99 1
  117    96    97 1
  118    94    95 1
  119    92    93 1
  120    90    91 1
  121    88    89 1
  122    85    86 1
  123   125   126 1
  124   122   123 1
  125   122   124 1
  126   119   120 1
  127   117   118 1
  128   115   116 1
  129   113   114 1
  130   111   112 1
  131   109   110 1
  132   106   107 1
@<TRIPOS>SUBSTRUCTURE
      1 MGO               1 ****               0 ****  **** 
      2 MGO              22 ****               0 ****  **** 
      3 MGO              43 ****               0 ****  **** 
      4 MGO              64 ****               0 ****  **** 
      5 MGO              85 ****               0 ****  **** 
      6 MGO             106 ****               0 ****  **** 
