@<TRIPOS>MOLECULE
Cpptraj
   22    22     1     0     0
SMALL
No Charge or Current Charge


@<TRIPOS>ATOM
      1 C1          18.9100    21.3510    36.7740 C.3        1 MCH      -0.085100
      2 H2          17.9470    21.6260    36.3380 H          1 MCH       0.044033
      3 H3          18.7520    20.4910    37.4280 H          1 MCH       0.044033
      4 H4          19.2580    22.1890    37.3840 H          1 MCH       0.044033
      5 C2          19.9350    21.0200    35.6660 C.3        1 MCH       0.154800
      6 C3          19.4300    19.8220    34.8190 C.3        1 MCH      -0.105400
      7 H5          18.4640    20.0880    34.3820 H          1 MCH       0.051200
      8 H6          19.2510    18.9500    35.4550 H          1 MCH       0.051200
      9 C4          20.3990    19.4340    33.6720 C.3        1 MCH      -0.078900
     10 H7          21.1320    18.7110    34.0360 H          1 MCH       0.041450
     11 H8          19.8240    18.9310    32.8900 H          1 MCH       0.041450
     12 C5          21.1510    20.6420    33.0610 C.3        1 MCH      -0.080400
     13 H9          21.3100    20.4720    31.9940 H          1 MCH       0.038700
     14 H10         22.1390    20.7280    33.5190 H          1 MCH       0.038700
     15 C6          20.3870    21.9630    33.2770 C.3        1 MCH      -0.078900
     16 H11         20.9200    22.7870    32.7940 H          1 MCH       0.041450
     17 H12         19.4090    21.8900    32.7930 H          1 MCH       0.041450
     18 C7          20.1970    22.2780    34.7810 C.3        1 MCH      -0.105400
     19 H13         21.0800    22.8100    35.1480 H          1 MCH       0.051200
     20 H14         19.3640    22.9810    34.8680 H          1 MCH       0.051200
     21 O1          21.1510    20.6420    36.3340 O.3        1 MCH      -0.600800
     22 H1          21.8200    20.4490    35.6210 H          1 MCH       0.400001
@<TRIPOS>BOND
     1    15    18 1   
     2    12    15 1   
     3     9    12 1   
     4     6     9 1   
     5     5     6 1   
     6     5    18 1   
     7     5    21 1   
     8     1     5 1   
     9    21    22 1   
    10    18    19 1   
    11    18    20 1   
    12    15    16 1   
    13    15    17 1   
    14    12    13 1   
    15    12    14 1   
    16     9    10 1   
    17     9    11 1   
    18     6     7 1   
    19     6     8 1   
    20     1     2 1   
    21     1     3 1   
    22     1     4 1   
@<TRIPOS>SUBSTRUCTURE
     1 MCH         1 TEMP              0 ****  ****    0 ROOT
