@<TRIPOS>MOLECULE
Cpptraj generated mol2 file.
  147   154     7     0     0
SMALL
USER_CHARGES


@<TRIPOS>ATOM
      1 C1         22.0110   14.4740   32.7790 c3         1 MGO      0.304529
      2 H1         22.8900   13.8200   32.9440 h2         1 MGO      0.090782
      3 O1         22.4170   15.8530   32.4770 os         1 MGO     -0.453070
      4 C2         21.2250   13.9230   31.5940 c3         1 MGO      0.092199
      5 H2         20.9630   12.8770   31.7800 h1         1 MGO      0.102926
      6 O2         22.0190   14.0170   30.3990 oh         1 MGO     -0.586639
      7 HO2        22.7480   14.6450   30.5330 ho         1 MGO      0.425065
      8 C3         19.9700   14.7380   31.3560 c3         1 MGO      0.093211
      9 H3         20.2440   15.7540   31.0610 h1         1 MGO      0.064468
     10 O3         19.2450   14.0800   30.3040 oh         1 MGO     -0.592567
     11 HO3        19.9080   13.7570   29.6790 ho         1 MGO      0.421017
     12 C4         19.1180   14.7680   32.6140 c3         1 MGO      0.127621
     13 H4         18.7540   13.7600   32.8240 h1         1 MGO      0.080661
     14 C5         19.9210   15.2860   33.8190 c3         1 MGO      0.104343
     15 H5         20.2330   16.3090   33.5970 h1         1 MGO      0.068516
     16 O5         21.1450   14.4560   33.9750 os         1 MGO     -0.427383
     17 C6         19.1840   15.3460   35.1650 c3         1 MGO      0.141081
     18 H61        18.6930   16.3170   35.2710 h1         1 MGO      0.057384
     19 H62        19.8950   15.2340   35.9870 h1         1 MGO      0.057384
     20 O6         18.1890   14.3200   35.2460 oh         1 MGO     -0.593555
     21 HO6        17.3610   14.6730   34.8940 ho         1 MGO      0.422027
     22 C1         25.8650   18.2050   32.8720 c3         2 MGO      0.304529
     23 H1         26.9240   18.4880   33.0330 h2         2 MGO      0.090782
     24 O1         25.0420   19.3740   32.5320 os         2 MGO     -0.453070
     25 C2         25.8110   17.2120   31.7140 c3         2 MGO      0.092199
     26 H2         26.4640   16.3630   31.9290 h1         2 MGO      0.102926
     27 O2         26.2390   17.8570   30.5030 oh         2 MGO     -0.586639
     28 HO2        26.2030   18.8230   30.6080 ho         2 MGO      0.425065
     29 C3         24.3920   16.7350   31.4840 c3         2 MGO      0.093211
     30 H3         23.7690   17.5740   31.1600 h1         2 MGO      0.064468
     31 O3         24.4600   15.7270   30.4610 oh         2 MGO     -0.592567
     32 HO3        25.1290   16.0270   29.8290 ho         2 MGO      0.421017
     33 C4         23.8290   16.1250   32.7570 c3         2 MGO      0.127621
     34 H4         24.3910   15.2170   32.9960 h1         2 MGO      0.080661
     35 C5         23.9200   17.1100   33.9340 c3         2 MGO      0.104343
     36 H5         23.3180   17.9840   33.6820 h1         2 MGO      0.068516
     37 O5         25.3320   17.5540   34.0850 os         2 MGO     -0.427383
     38 C6         23.4060   16.6110   35.2920 c3         2 MGO      0.141081
     39 H61        22.3420   16.8360   35.3870 h1         2 MGO      0.057384
     40 H62        23.9340   17.1200   36.1030 h1         2 MGO      0.057384
     41 O6         23.5880   15.1950   35.4160 oh         2 MGO     -0.593555
     42 HO6        22.7980   14.7590   35.0730 ho         2 MGO      0.422027
     43 C1         25.3530   23.5460   32.8070 c3         3 MGO      0.304529
     44 H1         25.7910   24.5540   32.9410 h2         3 MGO      0.090782
     45 O1         23.9280   23.6210   32.4570 os         3 MGO     -0.453070
     46 C2         26.0990   22.8510   31.6720 c3         3 MGO      0.092199
     47 H2         27.1710   22.8370   31.8920 h1         3 MGO      0.102926
     48 O2         25.8690   23.5520   30.4390 oh         3 MGO     -0.586639
     49 HO2        25.0930   24.1290   30.5240 ho         3 MGO      0.425065
     50 C3         25.5900   21.4380   31.4800 c3         3 MGO      0.093211
     51 H3         24.5480   21.4660   31.1510 h1         3 MGO      0.064468
     52 O3         26.4250   20.8330   30.4790 oh         3 MGO     -0.592567
     53 HO3        26.6110   21.5240   29.8280 ho         3 MGO      0.421017
     54 C4         25.7100   20.6550   32.7780 c3         3 MGO      0.127621
     55 H4         26.7690   20.5360   33.0260 h1         3 MGO      0.080661
     56 C5         24.9910   21.3740   33.9290 c3         3 MGO      0.104343
     57 H5         23.9320   21.4410   33.6710 h1         3 MGO      0.068516
     58 O5         25.5230   22.7580   34.0430 os         3 MGO     -0.427383
     59 C6         25.0530   20.7020   35.3090 c3         3 MGO      0.141081
     60 H61        24.2130   20.0130   35.4200 h1         3 MGO      0.057384
     61 H62        24.9790   21.4550   36.0980 h1         3 MGO      0.057384
     62 O6         26.2730   19.9640   35.4620 oh         3 MGO     -0.593555
     63 HO6        26.1210   19.0640   35.1430 ho         3 MGO      0.422027
     64 C1         20.8590   26.4740   32.6330 c3         4 MGO      0.304529
     65 H1         20.3440   27.4490   32.7370 h2         4 MGO      0.090782
     66 O1         19.9140   25.3970   32.3090 os         4 MGO     -0.453070
     67 C2         21.8740   26.5910   31.5010 c3         4 MGO      0.092199
     68 H2         22.5520   27.4270   31.7000 h1         4 MGO      0.102926
     69 O2         21.1900   26.8130   30.2560 oh         4 MGO     -0.586639
     70 HO2        20.2540   26.5690   30.3440 ho         4 MGO      0.425065
     71 C3         22.6620   25.3080   31.3500 c3         4 MGO      0.093211
     72 H3         21.9920   24.5000   31.0390 h1         4 MGO      0.064468
     73 O3         23.6610   25.5530   30.3470 oh         4 MGO     -0.592567
     74 HO3        23.2420   26.1110   29.6760 ho         4 MGO      0.421017
     75 C4         23.3410   24.9490   32.6610 c3         4 MGO      0.127621
     76 H4         24.0930   25.7080   32.8920 h1         4 MGO      0.080661
     77 C5         22.3250   24.8680   33.8110 c3         4 MGO      0.104343
     78 H5         21.6130   24.0760   33.5710 h1         4 MGO      0.068516
     79 O5         21.5750   26.1510   33.8830 os         4 MGO     -0.427383
     80 C6         22.8820   24.5380   35.2030 c3         4 MGO      0.141081
     81 H61        22.8950   23.4540   35.3460 h1         4 MGO      0.057384
     82 H62        22.2430   24.9730   35.9760 h1         4 MGO      0.057384
     83 O6         24.2180   25.0350   35.3490 oh         4 MGO     -0.593555
     84 HO6        24.8300   24.3470   35.0520 ho         4 MGO      0.422027
     85 C1         15.7690   24.7840   32.4810 c3         5 MGO      0.304529
     86 H1         14.6860   24.9930   32.5730 h2         5 MGO      0.090782
     87 O1         16.0220   23.3650   32.1990 os         5 MGO     -0.453070
     88 C2         16.3160   25.6190   31.3270 c3         5 MGO      0.092199
     89 H2         16.0860   26.6740   31.4960 h1         5 MGO      0.102926
     90 O2         15.7230   25.1860   30.0920 oh         5 MGO     -0.586639
     91 HO2        15.3300   24.3040   30.2010 ho         5 MGO      0.425065
     92 C3         17.8130   25.4280   31.1900 c3         5 MGO      0.093211
     93 H3         18.0270   24.3920   30.9100 h1         5 MGO      0.064468
     94 O3         18.2500   26.3320   30.1620 oh         5 MGO     -0.592567
     95 HO3        17.5550   26.3320   29.4880 ho         5 MGO      0.421017
     96 C4         18.5080   25.7740   32.4950 c3         5 MGO      0.127621
     97 H4         18.3840   26.8410   32.6950 h1         5 MGO      0.080661
     98 C5         17.9320   24.9620   33.6660 c3         5 MGO      0.104343
     99 H5         18.1080   23.9050   33.4580 h1         5 MGO      0.068516
    100 O5         16.4600   25.1780   33.7250 os         5 MGO     -0.427383
    101 C6         18.5300   25.2300   35.0540 c3         5 MGO      0.141081
    102 H61        19.3850   24.5700   35.2200 h1         5 MGO      0.057384
    103 H62        17.7870   25.0250   35.8290 h1         5 MGO      0.057384
    104 O6         18.9750   26.5890   35.1630 oh         5 MGO     -0.593555
    105 HO6        19.8950   26.6290   34.8700 ho         5 MGO      0.422027
    106 C1         13.9150   19.7490   32.4650 c3         6 MGO      0.304529
    107 H1         13.0750   19.0350   32.5720 h2         6 MGO      0.090782
    108 O1         15.1830   19.0530   32.2100 os         6 MGO     -0.453070
    109 C2         13.6110   20.6630   31.2810 c3         6 MGO      0.092199
    110 H2         12.6410   21.1470   31.4300 h1         6 MGO      0.102926
    111 O2         13.5860   19.8940   30.0670 oh         6 MGO     -0.586639
    112 HO2        14.0280   19.0400   30.2050 ho         6 MGO      0.425065
    113 C3         14.6940   21.7090   31.1190 c3         6 MGO      0.093211
    114 H3         15.6380   21.2230   30.8590 h1         6 MGO      0.064468
    115 O3         14.2660   22.5850   30.0640 oh         6 MGO     -0.592567
    116 HO3        13.8360   22.0230   29.4030 ho         6 MGO      0.421017
    117 C4         14.8500   22.5070   32.4040 c3         6 MGO      0.127621
    118 H4         13.9370   23.0810   32.5810 h1         6 MGO      0.080661
    119 C5         15.1170   21.5830   33.6030 c3         6 MGO      0.104343
    120 H5         16.0550   21.0570   33.4160 h1         6 MGO      0.068516
    121 O5         14.0300   20.5710   33.6840 os         6 MGO     -0.427383
    122 C6         15.2730   22.2590   34.9730 c3         6 MGO      0.141081
    123 H61        16.3200   22.5190   35.1380 h1         6 MGO      0.057384
    124 H62        14.9660   21.5730   35.7670 h1         6 MGO      0.057384
    125 O6         14.4870   23.4570   35.0420 oh         6 MGO     -0.593555
    126 HO6        15.0330   24.1920   34.7320 ho         6 MGO      0.422027
    127 C1         16.6940   15.1600   32.5970 c3         7 MGO      0.304529
    128 H1         16.7270   14.0620   32.7370 h2         7 MGO      0.090782
    129 O1         18.0290   15.7100   32.3340 os         7 MGO     -0.453070
    130 C2         15.7950   15.4580   31.3990 c3         7 MGO      0.092199
    131 H2         14.8120   15.0070   31.5570 h1         7 MGO      0.102926
    132 O2         16.3880   14.9240   30.2040 oh         7 MGO     -0.586639
    133 HO2        17.3300   14.7410   30.3530 ho         7 MGO      0.425065
    134 C3         15.6540   16.9520   31.1940 c3         7 MGO      0.093211
    135 H3         16.6250   17.3790   30.9260 h1         7 MGO      0.064468
    136 O3         14.7090   17.1320   30.1260 oh         7 MGO     -0.592567
    137 HO3        14.8830   16.4270   29.4880 ho         7 MGO      0.421017
    138 C4         15.1220   17.6100   32.4570 c3         7 MGO      0.127621
    139 H4         14.1020   17.2590   32.6390 h1         7 MGO      0.080661
    140 C5         16.0030   17.2770   33.6710 c3         7 MGO      0.104343
    141 H5         17.0010   17.6760   33.4770 h1         7 MGO      0.068516
    142 O5         16.1160   15.8000   33.7960 os         7 MGO     -0.427383
    143 C6         15.5650   17.8600   35.0220 c3         7 MGO      0.141081
    144 H61        16.0130   18.8460   35.1610 h1         7 MGO      0.057384
    145 H62        15.9040   17.2150   35.8360 h1         7 MGO      0.057384
    146 O6         14.1380   17.9960   35.0800 oh         7 MGO     -0.593555
    147 HO6        13.9050   18.8700   34.7420 ho         7 MGO      0.422027
@<TRIPOS>BOND
    1    17    20 1
    2    14    16 1
    3    14    17 1
    4    12    14 1
    5    12   129 1
    6     8    10 1
    7     8    12 1
    8     4     6 1
    9     4     8 1
   10     3    33 1
   11     1     3 1
   12     1     4 1
   13     1    16 1
   14    38    41 1
   15    35    37 1
   16    35    38 1
   17    33    35 1
   18    29    31 1
   19    29    33 1
   20    25    27 1
   21    25    29 1
   22    24    54 1
   23    22    24 1
   24    22    25 1
   25    22    37 1
   26    59    62 1
   27    56    58 1
   28    56    59 1
   29    54    56 1
   30    50    52 1
   31    50    54 1
   32    46    48 1
   33    46    50 1
   34    45    75 1
   35    43    45 1
   36    43    46 1
   37    43    58 1
   38    80    83 1
   39    77    79 1
   40    77    80 1
   41    75    77 1
   42    71    73 1
   43    71    75 1
   44    67    69 1
   45    67    71 1
   46    66    96 1
   47    64    66 1
   48    64    67 1
   49    64    79 1
   50   101   104 1
   51    98   100 1
   52    98   101 1
   53    96    98 1
   54    92    94 1
   55    92    96 1
   56    88    90 1
   57    88    92 1
   58    87   117 1
   59    85    87 1
   60    85    88 1
   61    85   100 1
   62   122   125 1
   63   119   121 1
   64   119   122 1
   65   117   119 1
   66   113   115 1
   67   113   117 1
   68   109   111 1
   69   109   113 1
   70   108   138 1
   71   106   108 1
   72   106   109 1
   73   106   121 1
   74   143   146 1
   75   140   142 1
   76   140   143 1
   77   138   140 1
   78   134   136 1
   79   134   138 1
   80   130   132 1
   81   130   134 1
   82   127   129 1
   83   127   130 1
   84   127   142 1
   85    20    21 1
   86    17    18 1
   87    17    19 1
   88    14    15 1
   89    12    13 1
   90    10    11 1
   91     8     9 1
   92     6     7 1
   93     4     5 1
   94     1     2 1
   95    41    42 1
   96    38    39 1
   97    38    40 1
   98    35    36 1
   99    33    34 1
  100    31    32 1
  101    29    30 1
  102    27    28 1
  103    25    26 1
  104    22    23 1
  105    62    63 1
  106    59    60 1
  107    59    61 1
  108    56    57 1
  109    54    55 1
  110    52    53 1
  111    50    51 1
  112    48    49 1
  113    46    47 1
  114    43    44 1
  115    83    84 1
  116    80    81 1
  117    80    82 1
  118    77    78 1
  119    75    76 1
  120    73    74 1
  121    71    72 1
  122    69    70 1
  123    67    68 1
  124    64    65 1
  125   104   105 1
  126   101   102 1
  127   101   103 1
  128    98    99 1
  129    96    97 1
  130    94    95 1
  131    92    93 1
  132    90    91 1
  133    88    89 1
  134    85    86 1
  135   125   126 1
  136   122   123 1
  137   122   124 1
  138   119   120 1
  139   117   118 1
  140   115   116 1
  141   113   114 1
  142   111   112 1
  143   109   110 1
  144   106   107 1
  145   146   147 1
  146   143   144 1
  147   143   145 1
  148   140   141 1
  149   138   139 1
  150   136   137 1
  151   134   135 1
  152   132   133 1
  153   130   131 1
  154   127   128 1
@<TRIPOS>SUBSTRUCTURE
      1 MGO               1 ****               0 ****  **** 
      2 MGO              22 ****               0 ****  **** 
      3 MGO              43 ****               0 ****  **** 
      4 MGO              64 ****               0 ****  **** 
      5 MGO              85 ****               0 ****  **** 
      6 MGO             106 ****               0 ****  **** 
      7 MGO             127 ****               0 ****  **** 
