@<TRIPOS>MOLECULE
M4C
   22    22     1     0     0
SMALL
bcc


@<TRIPOS>ATOM
      1 C1          0.0000    0.0000    0.0000 c3       11 M4C     -0.089059
      2 H2          0.0220    1.0850   -0.1160 hc       11 M4C      0.033716
      3 H3          0.8730   -0.3790   -0.5350 hc       11 M4C      0.033716
      4 H4         -0.8950   -0.4350   -0.4500 hc       11 M4C      0.033716
      5 C2         -0.0090   -0.3730    1.5410 c3       11 M4C     -0.065670
      6 H5          0.0180   -1.4640    1.5720 hc       11 M4C      0.043720
      7 C3          1.3050    0.0500    2.2010 c3       11 M4C     -0.072366
      8 H6          2.0690   -0.4650    1.6170 hc       11 M4C      0.045971
      9 H7          1.4210    1.1360    2.1670 hc       11 M4C      0.045971
     10 C4          1.2890   -0.4530    3.7440 c3       11 M4C     -0.090358
     11 H8          2.1540   -0.0150    4.2470 hc       11 M4C      0.045971
     12 H9          1.3520   -1.5430    3.7750 hc       11 M4C      0.045971
     13 C5          0.0000   -0.0000    4.4240 c3       11 M4C      0.142166
     14 H10         0.0480   -0.3010    5.4730 h1       11 M4C      0.027713
     15 C6         -1.2940   -0.4060    3.7030 c3       11 M4C     -0.090358
     16 H11        -2.1940    0.0010    4.1680 hc       11 M4C      0.045971
     17 H12        -1.4200   -1.4740    3.5190 hc       11 M4C      0.045971
     18 C7         -1.2840    0.1310    2.3240 c3       11 M4C     -0.072366
     19 H13        -1.4110    1.2040    2.1700 hc       11 M4C      0.045971
     20 H14        -2.1620   -0.2780    1.8190 hc       11 M4C      0.045971
     21 O1          0.0640    1.4380    4.6140 oh       11 M4C     -0.599522
     22 H1         -0.7440    1.6680    5.1070 ho       11 M4C      0.397184
@<TRIPOS>BOND
     1    1    2 1   
     2    1    3 1   
     3    1    4 1   
     4    1    5 1   
     5    5    6 1   
     6    5    7 1   
     7    5   18 1   
     8    7    8 1   
     9    7    9 1   
    10    7   10 1   
    11   10   11 1   
    12   10   12 1   
    13   10   13 1   
    14   13   14 1   
    15   13   15 1   
    16   13   21 1   
    17   15   16 1   
    18   15   17 1   
    19   15   18 1   
    20   18   19 1   
    21   18   20 1   
    22   21   22 1   
@<TRIPOS>SUBSTRUCTURE
     1 M4C         1 TEMP              0 ****  ****    0 ROOT
