@<TRIPOS>MOLECULE
HEP
   22    21     1     0     0
SMALL
bcc


@<TRIPOS>ATOM
      1 C1          0.0000    0.0000    7.6720  c        1 HEP      0.907600
      2 O1          0.3070    1.1810    7.6560  o        1 HEP     -0.853800
      3 O2         -0.1490   -0.5740    8.7380  o        1 HEP     -0.853800
      4 C2         -0.2060   -0.7910    6.3760 c3        1 HEP     -0.193400
      5 H1         -1.2210   -1.2010    6.3600 hc        1 HEP      0.018700
      6 H2          0.4820   -1.6440    6.3600 hc        1 HEP      0.018700
      7 C3          0.0120    0.0460    5.0930 c3        1 HEP     -0.065400
      8 H3         -0.6820    0.8910    5.0830 hc        1 HEP      0.043700
      9 H4          1.0290    0.4450    5.0830 hc        1 HEP      0.043700
     10 C4         -0.2100   -0.8090    3.8270 c3        1 HEP     -0.078400
     11 H5         -1.2260   -1.2110    3.8320 hc        1 HEP      0.025700
     12 H6          0.4810   -1.6550    3.8320 hc        1 HEP      0.025700
     13 C5          0.0060    0.0250    2.5460 c3        1 HEP     -0.078400
     14 H7         -0.6850    0.8710    2.5400 hc        1 HEP      0.035700
     15 H8          1.0220    0.4270    2.5400 hc        1 HEP      0.035700
     16 C6         -0.2160   -0.8290    1.2800 c3        1 HEP     -0.081400
     17 H9         -1.2320   -1.2320    1.2800 hc        1 HEP      0.032700
     18 H10         0.4750   -1.6750    1.2800 hc        1 HEP      0.032700
     19 C7          0.0000    0.0000    0.0000 c3        1 HEP     -0.089100
     20 H11        -0.6980    0.8390   -0.0390 hc        1 HEP      0.024367
     21 H12        -0.1620   -0.6210   -0.8840 hc        1 HEP      0.024367
     22 H13         1.0190    0.3920   -0.0390 hc        1 HEP      0.024366
@<TRIPOS>BOND
     1    1    2 1   
     2    1    3 1   
     3    1    4 1   
     4    4    5 1   
     5    4    6 1   
     6    4    7 1   
     7    7    8 1   
     8    7    9 1   
     9    7   10 1   
    10   10   11 1   
    11   10   12 1   
    12   10   13 1   
    13   13   14 1   
    14   13   15 1   
    15   13   16 1   
    16   16   17 1   
    17   16   18 1   
    18   16   19 1   
    19   19   20 1   
    20   19   21 1   
    21   19   22 1   
@<TRIPOS>SUBSTRUCTURE
     1 HEP         1 TEMP              0 ****  ****    0 ROOT
