@<TRIPOS>MOLECULE
Cpptraj generated mol2 file.
  126   132     6     0     0
SMALL
USER_CHARGES


@<TRIPOS>ATOM
      1 C1         15.9700   15.2720   34.6770 c3         1 MGO      0.304529
      2 H1         14.8820   15.1220   34.5320 h2         1 MGO      0.090782
      3 O1         16.2750   16.6590   35.0510 os         1 MGO     -0.453070
      4 C2         16.4400   14.3610   35.8060 c3         1 MGO      0.092199
      5 H2         16.2000   13.3200   35.5710 h1         1 MGO      0.102926
      6 O2         15.7870   14.7500   37.0270 oh         1 MGO     -0.586639
      7 HO2        15.4560   15.6570   36.9430 ho         1 MGO      0.425065
      8 C3         17.9290   14.5220   36.0300 c3         1 MGO      0.093211
      9 H3         18.1330   15.5350   36.3860 h1         1 MGO      0.064468
     10 O3         18.3070   13.5570   37.0240 oh         1 MGO     -0.592567
     11 HO3        17.5810   13.5190   37.6620 ho         1 MGO      0.421017
     12 C4         18.7090   14.2610   34.7500 c3         1 MGO      0.127621
     13 H4         18.6540   13.1960   34.5070 h1         1 MGO      0.080661
     14 C5         18.1750   15.1010   33.5750 c3         1 MGO      0.104343
     15 H5         18.3530   16.1510   33.8170 h1         1 MGO      0.068516
     16 O5         16.7050   14.9050   33.4530 os         1 MGO     -0.427383
     17 C6         18.8170   14.8710   32.1990 c3         1 MGO      0.141081
     18 H61        19.6450   15.5690   32.0590 h1         1 MGO      0.057384
     19 H62        18.0850   15.0520   31.4080 h1         1 MGO      0.057384
     20 O6         19.3210   13.5340   32.0880 oh         1 MGO     -0.593555
     21 HO6        20.2350   13.5330   32.4000 ho         1 MGO      0.422027
     22 C1         14.7190   20.5000   34.6760 c3         2 MGO      0.304529
     23 H1         14.0450   21.3670   34.5310 h2         2 MGO      0.090782
     24 O1         16.0730   20.9300   35.0500 os         2 MGO     -0.453070
     25 C2         14.1640   19.6390   35.8060 c3         2 MGO      0.092199
     26 H2         13.1430   19.3270   35.5700 h1         2 MGO      0.102926
     27 O2         14.1750   20.3980   37.0260 oh         2 MGO     -0.586639
     28 HO2        14.7940   21.1390   36.9420 ho         2 MGO      0.425065
     29 C3         15.0480   18.4290   36.0300 c3         2 MGO      0.093211
     30 H3         16.0280   18.7600   36.3860 h1         2 MGO      0.064468
     31 O3         14.4010   17.6180   37.0240 oh         2 MGO     -0.592567
     32 HO3        14.0060   18.2290   37.6620 ho         2 MGO      0.421017
     33 C4         15.2120   17.6220   34.7500 c3         2 MGO      0.127621
     34 H4         14.2630   17.1380   34.5070 h1         2 MGO      0.080661
     35 C5         15.6730   18.5050   33.5750 c3         2 MGO      0.104343
     36 H5         16.6710   18.8760   33.8170 h1         2 MGO      0.068516
     37 O5         14.7680   19.6800   33.4520 os         2 MGO     -0.427383
     38 C6         15.7940   17.8330   32.1990 c3         2 MGO      0.141081
     39 H61        16.8120   17.4640   32.0580 h1         2 MGO      0.057384
     40 H62        15.5850   18.5570   31.4080 h1         2 MGO      0.057384
     41 O6         14.8880   16.7280   32.0880 oh         2 MGO     -0.593555
     42 HO6        15.3440   15.9350   32.4010 ho         2 MGO      0.422027
     43 C1         18.6210   24.1970   34.6760 c3         3 MGO      0.304529
     44 H1         19.0340   25.2140   34.5300 h2         3 MGO      0.090782
     45 O1         19.6690   23.2410   35.0500 os         3 MGO     -0.453070
     46 C2         17.5980   24.2470   35.8050 c3         3 MGO      0.092199
     47 H2         16.8150   24.9750   35.5690 h1         3 MGO      0.102926
     48 O2         18.2590   24.6190   37.0250 oh         3 MGO     -0.586639
     49 HO2        19.2110   24.4520   36.9410 ho         3 MGO      0.425065
     50 C3         16.9910   22.8770   36.0290 c3         3 MGO      0.093211
     51 H3         17.7670   22.1940   36.3850 h1         3 MGO      0.064468
     52 O3         15.9660   23.0320   37.0240 oh         3 MGO     -0.592567
     53 HO3        16.2970   23.6800   37.6600 ho         3 MGO      0.421017
     54 C4         16.3750   22.3310   34.7490 c3         3 MGO      0.127621
     55 H4         15.4810   22.9120   34.5050 h1         3 MGO      0.080661
     56 C5         17.3700   22.3740   33.5740 c3         3 MGO      0.104343
     57 H5         18.1900   21.6950   33.8160 h1         3 MGO      0.068516
     58 O5         17.9350   23.7440   33.4510 os         3 MGO     -0.427383
     59 C6         16.8500   21.9330   32.1990 c3         3 MGO      0.141081
     60 H61        17.0400   20.8670   32.0580 h1         3 MGO      0.057384
     61 H62        17.3720   22.4760   31.4080 h1         3 MGO      0.057384
     62 O6         15.4390   22.1650   32.0870 oh         3 MGO     -0.593555
     63 HO6        14.9820   21.3730   32.4000 ho         3 MGO      0.422027
     64 C1         23.7730   22.6680   34.6770 c3         4 MGO      0.304529
     65 H1         24.8610   22.8180   34.5310 h2         4 MGO      0.090782
     66 O1         23.4690   21.2810   35.0500 os         4 MGO     -0.453070
     67 C2         23.3050   23.5800   35.8060 c3         4 MGO      0.092199
     68 H2         23.5450   24.6200   35.5700 h1         4 MGO      0.102926
     69 O2         23.9570   23.1920   37.0250 oh         4 MGO     -0.586639
     70 HO2        24.2880   22.2840   36.9420 ho         4 MGO      0.425065
     71 C3         21.8150   23.4190   36.0300 c3         4 MGO      0.093211
     72 H3         21.6120   22.4050   36.3860 h1         4 MGO      0.064468
     73 O3         21.4360   24.3840   37.0240 oh         4 MGO     -0.592567
     74 HO3        22.1620   24.4220   37.6610 ho         4 MGO      0.421017
     75 C4         21.0360   23.6800   34.7490 c3         4 MGO      0.127621
     76 H4         21.0900   24.7440   34.5060 h1         4 MGO      0.080661
     77 C5         21.5690   22.8390   33.5750 c3         4 MGO      0.104343
     78 H5         21.3910   21.7900   33.8170 h1         4 MGO      0.068516
     79 O5         23.0380   23.0350   33.4520 os         4 MGO     -0.427383
     80 C6         20.9280   23.0690   32.1990 c3         4 MGO      0.141081
     81 H61        20.0980   22.3720   32.0580 h1         4 MGO      0.057384
     82 H62        21.6590   22.8890   31.4080 h1         4 MGO      0.057384
     83 O6         20.4230   24.4060   32.0870 oh         4 MGO     -0.593555
     84 HO6        19.5090   24.4070   32.4000 ho         4 MGO      0.422027
     85 C1         25.0250   17.4410   34.6760 c3         5 MGO      0.304529
     86 H1         25.6980   16.5730   34.5300 h2         5 MGO      0.090782
     87 O1         23.6710   17.0110   35.0500 os         5 MGO     -0.453070
     88 C2         25.5800   18.3010   35.8060 c3         5 MGO      0.092199
     89 H2         26.6010   18.6140   35.5700 h1         5 MGO      0.102926
     90 O2         25.5690   17.5420   37.0260 oh         5 MGO     -0.586639
     91 HO2        24.9500   16.8020   36.9420 ho         5 MGO      0.425065
     92 C3         24.6970   19.5110   36.0300 c3         5 MGO      0.093211
     93 H3         23.7160   19.1810   36.3860 h1         5 MGO      0.064468
     94 O3         25.3430   20.3220   37.0240 oh         5 MGO     -0.592567
     95 HO3        25.7380   19.7120   37.6610 ho         5 MGO      0.421017
     96 C4         24.5320   20.3180   34.7490 c3         5 MGO      0.127621
     97 H4         25.4810   20.8020   34.5070 h1         5 MGO      0.080661
     98 C5         24.0710   19.4360   33.5750 c3         5 MGO      0.104343
     99 H5         23.0730   19.0640   33.8160 h1         5 MGO      0.068516
    100 O5         24.9750   18.2610   33.4520 os         5 MGO     -0.427383
    101 C6         23.9500   20.1070   32.1990 c3         5 MGO      0.141081
    102 H61        22.9320   20.4760   32.0580 h1         5 MGO      0.057384
    103 H62        24.1590   19.3830   31.4070 h1         5 MGO      0.057384
    104 O6         24.8560   21.2120   32.0880 oh         5 MGO     -0.593555
    105 HO6        24.4000   22.0040   32.4000 ho         5 MGO      0.422027
    106 C1         21.1230   13.7430   34.6770 c3         6 MGO      0.304529
    107 H1         20.7100   12.7250   34.5300 h2         6 MGO      0.090782
    108 O1         20.0740   14.7000   35.0510 os         6 MGO     -0.453070
    109 C2         22.1470   13.6930   35.8050 c3         6 MGO      0.092199
    110 H2         22.9290   12.9650   35.5700 h1         6 MGO      0.102926
    111 O2         21.4850   13.3220   37.0260 oh         6 MGO     -0.586639
    112 HO2        20.5330   13.4890   36.9420 ho         6 MGO      0.425065
    113 C3         22.7530   15.0630   36.0300 c3         6 MGO      0.093211
    114 H3         21.9760   15.7460   36.3860 h1         6 MGO      0.064468
    115 O3         23.7790   14.9080   37.0240 oh         6 MGO     -0.592567
    116 HO3        23.4480   14.2610   37.6610 ho         6 MGO      0.421017
    117 C4         23.3690   15.6080   34.7490 c3         6 MGO      0.127621
    118 H4         24.2630   15.0280   34.5060 h1         6 MGO      0.080661
    119 C5         22.3740   15.5660   33.5750 c3         6 MGO      0.104343
    120 H5         21.5540   16.2460   33.8170 h1         6 MGO      0.068516
    121 O5         21.8080   14.1960   33.4520 os         6 MGO     -0.427383
    122 C6         22.8940   16.0080   32.1990 c3         6 MGO      0.141081
    123 H61        22.7040   17.0740   32.0580 h1         6 MGO      0.057384
    124 H62        22.3710   15.4650   31.4080 h1         6 MGO      0.057384
    125 O6         24.3040   15.7750   32.0880 oh         6 MGO     -0.593555
    126 HO6        24.7620   16.5670   32.4000 ho         6 MGO      0.422027
@<TRIPOS>BOND
    1    17    20 1
    2    14    16 1
    3    14    17 1
    4    12    14 1
    5    12   108 1
    6     8    10 1
    7     8    12 1
    8     4     6 1
    9     4     8 1
   10     3    33 1
   11     1     3 1
   12     1     4 1
   13     1    16 1
   14    38    41 1
   15    35    37 1
   16    35    38 1
   17    33    35 1
   18    29    31 1
   19    29    33 1
   20    25    27 1
   21    25    29 1
   22    24    54 1
   23    22    24 1
   24    22    25 1
   25    22    37 1
   26    59    62 1
   27    56    58 1
   28    56    59 1
   29    54    56 1
   30    50    52 1
   31    50    54 1
   32    46    48 1
   33    46    50 1
   34    45    75 1
   35    43    45 1
   36    43    46 1
   37    43    58 1
   38    80    83 1
   39    77    79 1
   40    77    80 1
   41    75    77 1
   42    71    73 1
   43    71    75 1
   44    67    69 1
   45    67    71 1
   46    66    96 1
   47    64    66 1
   48    64    67 1
   49    64    79 1
   50   101   104 1
   51    98   100 1
   52    98   101 1
   53    96    98 1
   54    92    94 1
   55    92    96 1
   56    88    90 1
   57    88    92 1
   58    87   117 1
   59    85    87 1
   60    85    88 1
   61    85   100 1
   62   122   125 1
   63   119   121 1
   64   119   122 1
   65   117   119 1
   66   113   115 1
   67   113   117 1
   68   109   111 1
   69   109   113 1
   70   106   108 1
   71   106   109 1
   72   106   121 1
   73    20    21 1
   74    17    18 1
   75    17    19 1
   76    14    15 1
   77    12    13 1
   78    10    11 1
   79     8     9 1
   80     6     7 1
   81     4     5 1
   82     1     2 1
   83    41    42 1
   84    38    39 1
   85    38    40 1
   86    35    36 1
   87    33    34 1
   88    31    32 1
   89    29    30 1
   90    27    28 1
   91    25    26 1
   92    22    23 1
   93    62    63 1
   94    59    60 1
   95    59    61 1
   96    56    57 1
   97    54    55 1
   98    52    53 1
   99    50    51 1
  100    48    49 1
  101    46    47 1
  102    43    44 1
  103    83    84 1
  104    80    81 1
  105    80    82 1
  106    77    78 1
  107    75    76 1
  108    73    74 1
  109    71    72 1
  110    69    70 1
  111    67    68 1
  112    64    65 1
  113   104   105 1
  114   101   102 1
  115   101   103 1
  116    98    99 1
  117    96    97 1
  118    94    95 1
  119    92    93 1
  120    90    91 1
  121    88    89 1
  122    85    86 1
  123   125   126 1
  124   122   123 1
  125   122   124 1
  126   119   120 1
  127   117   118 1
  128   115   116 1
  129   113   114 1
  130   111   112 1
  131   109   110 1
  132   106   107 1
@<TRIPOS>SUBSTRUCTURE
      1 MGO               1 ****               0 ****  **** 
      2 MGO              22 ****               0 ****  **** 
      3 MGO              43 ****               0 ****  **** 
      4 MGO              64 ****               0 ****  **** 
      5 MGO              85 ****               0 ****  **** 
      6 MGO             106 ****               0 ****  **** 
