@<TRIPOS>MOLECULE
Cpptraj generated mol2 file.
   26    25     1     0     0
SMALL
USER_CHARGES


@<TRIPOS>ATOM
      1 C1         20.0250   18.6390   32.1990 c3         1 MHA     -0.097075
      2 H3         19.9990   19.2740   31.3110 hc         1 MHA      0.043378
      3 H4         20.9290   18.0260   32.1560 hc         1 MHA      0.043378
      4 H5         19.1550   17.9790   32.1760 hc         1 MHA      0.043378
      5 C2         20.0170   19.5050   33.4730 c3         1 MHA     -0.079379
      6 H6         19.1180   20.1270   33.4790 hc         1 MHA      0.045212
      7 H7         20.8810   20.1730   33.4590 hc         1 MHA      0.045212
      8 C3         20.0540   18.6320   34.7440 c3         1 MHA     -0.081379
      9 H8         19.1890   17.9640   34.7520 hc         1 MHA      0.049213
     10 H9         20.9520   18.0100   34.7340 hc         1 MHA      0.049213
     11 C4         20.0440   19.5010   36.0210 c3         1 MHA     -0.079379
     12 H10        19.1430   20.1200   36.0310 hc         1 MHA      0.055714
     13 H11        20.9070   20.1710   36.0040 hc         1 MHA      0.055714
     14 C5         20.0800   18.6260   37.2930 c3         1 MHA     -0.109372
     15 H12        19.2380   17.9300   37.2630 hc         1 MHA      0.069218
     16 H13        20.9950   18.0250   37.3030 hc         1 MHA      0.069218
     17 C6         19.9910   19.4670   38.5870 c3         1 MHA      0.128533
     18 H14        20.8610   20.1280   38.6360 hx         1 MHA      0.111729
     19 C7         18.7170   20.3250   38.5460 c3         1 MHA     -0.138064
     20 H15        17.8200   19.7000   38.4990 hc         1 MHA      0.082721
     21 H16        18.7230   20.9800   37.6710 hc         1 MHA      0.082721
     22 H17        18.6480   20.9590   39.4340 hc         1 MHA      0.082721
     23 N1         20.0250   18.6390   39.8380 n4         1 MHA     -0.847381
     24 H1         20.8970   18.0920   39.9090 hn         1 MHA      0.458252
     25 H2         19.9680   19.2320   40.6810 hn         1 MHA      0.458252
     26 HN11       19.2360   17.9760   39.8720 hn         1 MHA      0.458252
@<TRIPOS>BOND
    1    17    19 1
    2    17    23 1
    3    14    17 1
    4    11    14 1
    5     8    11 1
    6     5     8 1
    7     1     5 1
    8    23    24 1
    9    23    25 1
   10    23    26 1
   11    19    20 1
   12    19    21 1
   13    19    22 1
   14    17    18 1
   15    14    15 1
   16    14    16 1
   17    11    12 1
   18    11    13 1
   19     8     9 1
   20     8    10 1
   21     5     6 1
   22     5     7 1
   23     1     2 1
   24     1     3 1
   25     1     4 1
@<TRIPOS>SUBSTRUCTURE
      1 MHA               1 ****               0 ****  **** 
