@<TRIPOS>MOLECULE
Cpptraj
  147   154     1     0     0
SMALL
No Charge or Current Charge


@<TRIPOS>ATOM
      1 C1          25.6170    17.8760    33.7340 C.3        1 MGO       0.304529
      2 H1          26.6980    18.0820    33.8640 H          1 MGO       0.090782
      3 O1          24.8690    19.1030    33.4320 O.3        1 MGO      -0.453070
      4 C2          25.4560    16.9030    32.5700 C.3        1 MGO       0.092199
      5 H2          26.0530    16.0060    32.7550 H          1 MGO       0.102926
      6 O2          25.8900    17.5290    31.3510 O.3        1 MGO      -0.586639
      7 HO2         25.9260    18.4930    31.4670 H          1 MGO       0.425065
      8 C3          24.0010    16.5280    32.3810 C.3        1 MGO       0.093211
      9 H3          23.4300    17.4130    32.0860 H          1 MGO       0.064468
     10 O3          23.9640    15.5300    31.3480 O.3        1 MGO      -0.592567
     11 HO3         24.6310    15.7880    30.6980 H          1 MGO       0.421017
     12 C4          23.4380    15.9450    33.6670 C.3        1 MGO       0.127621
     13 H4          23.9400    14.9980    33.8800 H          1 MGO       0.080661
     14 C5          23.6350    16.9080    34.8490 C.3        1 MGO       0.104343
     15 H5          23.0870    17.8270    34.6260 H          1 MGO       0.068516
     16 O5          25.0780    17.2490    34.9570 O.3        1 MGO      -0.427383
     17 C6          23.1310    16.4320    36.2190 C.3        1 MGO       0.141081
     18 H61         22.0880    16.7300    36.3510 H          1 MGO       0.057384
     19 H62         23.7180    16.8930    37.0160 H          1 MGO       0.057384
     20 O6          23.2150    15.0050    36.3240 O.3        1 MGO      -0.593555
     21 HO6         22.3850    14.6290    36.0030 H          1 MGO       0.422027
     22 C1          25.4830    23.2390    33.7340 C.3        2 MGO       0.304529
     23 H1          25.9960    24.2130    33.8620 H          2 MGO       0.090782
     24 O1          24.0570    23.4190    33.4310 O.3        2 MGO      -0.453070
     25 C2          26.1430    22.5070    32.5690 C.3        2 MGO       0.092199
     26 H2          27.2170    22.4150    32.7540 H          2 MGO       0.102926
     27 O2          25.9230    23.2350    31.3500 O.3        2 MGO      -0.586639
     28 HO2         25.1920    23.8650    31.4660 H          2 MGO       0.425065
     29 C3          25.5280    21.1350    32.3820 C.3        2 MGO       0.093211
     30 H3          24.4800    21.2400    32.0860 H          2 MGO       0.064468
     31 O3          26.2850    20.4840    31.3490 O.3        2 MGO      -0.592567
     32 HO3         26.5000    21.1670    30.6970 H          2 MGO       0.421017
     33 C4          25.6330    20.3310    33.6670 C.3        2 MGO       0.127621
     34 H4          26.6870    20.1340    33.8800 H          2 MGO       0.080661
     35 C5          25.0040    21.0860    34.8490 C.3        2 MGO       0.104343
     36 H5          23.9450    21.2310    34.6260 H          2 MGO       0.068516
     37 O5          25.6360    22.4280    34.9570 O.3        2 MGO      -0.427383
     38 C6          25.0620    20.3960    36.2190 C.3        2 MGO       0.141081
     39 H61         24.1790    19.7670    36.3520 H          2 MGO       0.057384
     40 H62         25.0670    21.1430    37.0160 H          2 MGO       0.057384
     41 O6          26.2300    19.5720    36.3250 O.3        2 MGO      -0.593555
     42 HO6         26.0060    18.6890    36.0030 H          2 MGO       0.422027
     43 C1          21.2050    26.4790    33.7330 C.3        3 MGO       0.304529
     44 H1          20.7640    27.4860    33.8620 H          3 MGO       0.090782
     45 O1          20.1760    25.4750    33.4310 O.3        3 MGO      -0.453070
     46 C2          22.1890    26.5370    32.5680 C.3        3 MGO       0.092199
     47 H2          22.9310    27.3200    32.7520 H          3 MGO       0.102926
     48 O2          21.4820    26.8200    31.3500 O.3        3 MGO      -0.586639
     49 HO2         20.5350    26.6410    31.4650 H          3 MGO       0.425065
     50 C3          22.8790    25.2010    32.3800 C.3        3 MGO       0.093211
     51 H3          22.1430    24.4480    32.0860 H          3 MGO       0.064468
     52 O3          23.8590    25.3880    31.3470 O.3        3 MGO      -0.592567
     53 HO3         23.4590    25.9810    30.6960 H          3 MGO       0.421017
     54 C4          23.5730    24.7830    33.6670 C.3        3 MGO       0.127621
     55 H4          24.3840    25.4850    33.8780 H          3 MGO       0.080661
     56 C5          22.5910    24.7620    34.8480 C.3        3 MGO       0.104343
     57 H5          21.8170    24.0240    34.6250 H          3 MGO       0.068516
     58 O5          21.9360    26.0940    34.9560 O.3        3 MGO      -0.427383
     59 C6          23.1660    24.3770    36.2180 C.3        3 MGO       0.141081
     60 H61         23.1090    23.2950    36.3510 H          3 MGO       0.057384
     61 H62         22.5860    24.8490    37.0160 H          3 MGO       0.057384
     62 O6          24.5400    24.7780    36.3240 O.3        3 MGO      -0.593555
     63 HO6         25.0900    24.0510    36.0020 H          3 MGO       0.422027
     64 C1          16.0050    25.1540    33.7350 C.3        4 MGO       0.304529
     65 H1          14.9430    25.4370    33.8630 H          4 MGO       0.090782
     66 O1          16.1490    23.7240    33.4320 O.3        4 MGO      -0.453070
     67 C2          16.5730    25.9600    32.5700 C.3        4 MGO       0.092199
     68 H2          16.4240    27.0270    32.7550 H          4 MGO       0.102926
     69 O2          15.9110    25.5830    31.3500 O.3        4 MGO      -0.586639
     70 HO2         15.4600    24.7320    31.4670 H          4 MGO       0.425065
     71 C3          18.0470    25.6660    32.3810 C.3        4 MGO       0.093211
     72 H3          18.1780    24.6220    32.0860 H          4 MGO       0.064468
     73 O3          18.5130    26.5490    31.3480 O.3        4 MGO      -0.592567
     74 HO3         17.8000    26.6060    30.6980 H          4 MGO       0.421017
     75 C4          18.8080    25.9470    33.6660 C.3        4 MGO       0.127621
     76 H4          18.7650    27.0180    33.8790 H          4 MGO       0.080661
     77 C5          18.2120    25.1660    34.8480 C.3        4 MGO       0.104343
     78 H5          18.3070    24.1010    34.6260 H          4 MGO       0.068516
     79 O5          16.7630    25.4840    34.9570 O.3        4 MGO      -0.427383
     80 C6          18.8730    25.3770    36.2180 C.3        4 MGO       0.141081
     81 H61         19.6830    24.6560    36.3510 H          4 MGO       0.057384
     82 H62         18.1430    25.2160    37.0160 H          4 MGO       0.057384
     83 O6          19.4160    26.6990    36.3240 O.3        4 MGO      -0.593555
     84 HO6         20.3270    26.6780    36.0020 H          4 MGO       0.422027
     85 C1          13.8000    20.2630    33.7350 C.3        5 MGO       0.304529
     86 H1          12.9150    19.6090    33.8640 H          5 MGO       0.090782
     87 O1          15.0070    19.4830    33.4320 O.3        5 MGO      -0.453070
     88 C2          13.5230    21.2090    32.5700 C.3        5 MGO       0.092199
     89 H2          12.5950    21.7580    32.7560 H          5 MGO       0.102926
     90 O2          13.4040    20.4580    31.3520 O.3        5 MGO      -0.586639
     91 HO2         13.7890    19.5740    31.4670 H          5 MGO       0.425065
     92 C3          14.6720    22.1790    32.3820 C.3        5 MGO       0.093211
     93 H3          15.5700    21.6300    32.0870 H          5 MGO       0.064468
     94 O3          14.2720    23.0940    31.3490 O.3        5 MGO      -0.592567
     95 HO3         13.7830    22.5710    30.6980 H          5 MGO       0.421017
     96 C4          14.9260    22.9480    33.6680 C.3        5 MGO       0.127621
     97 H4          14.0620    23.5830    33.8810 H          5 MGO       0.080661
     98 C5          15.1670    21.9950    34.8490 C.3        5 MGO       0.104343
     99 H5          16.0570    21.4050    34.6260 H          5 MGO       0.068516
    100 O5          14.0130    21.0610    34.9580 O.3        5 MGO      -0.427383
    101 C6          15.4140    22.6420    36.2190 C.3        5 MGO       0.141081
    102 H61         16.4820    22.8270    36.3510 H          5 MGO       0.057384
    103 H62         15.0850    21.9720    37.0170 H          5 MGO       0.057384
    104 O6          14.7180    23.8920    36.3250 O.3        5 MGO      -0.593555
    105 HO6         15.3030    24.5900    36.0030 H          5 MGO       0.422027
    106 C1          16.2480    15.4890    33.7340 C.3        6 MGO       0.304529
    107 H1          16.2080    14.3890    33.8620 H          6 MGO       0.090782
    108 O1          17.6110    15.9450    33.4310 O.3        6 MGO      -0.453070
    109 C2          15.3350    15.8630    32.5690 C.3        6 MGO       0.092199
    110 H2          14.3280    15.4800    32.7540 H          6 MGO       0.102926
    111 O2          15.8500    15.3020    31.3500 O.3        6 MGO      -0.586639
    112 HO2         16.7810    15.0510    31.4650 H          6 MGO       0.425065
    113 C3          15.2950    17.3650    32.3810 C.3        6 MGO       0.093211
    114 H3          16.2840    17.7250    32.0860 H          6 MGO       0.064468
    115 O3          14.3300    17.6240    31.3480 O.3        6 MGO      -0.592567
    116 HO3         14.4330    16.9150    30.6970 H          6 MGO       0.421017
    117 C4          14.8510    18.0430    33.6680 C.3        6 MGO       0.127621
    118 H4          13.8160    17.7640    33.8790 H          6 MGO       0.080661
    119 C5          15.7460    17.6360    34.8480 C.3        6 MGO       0.104343
    120 H5          16.7620    17.9650    34.6260 H          6 MGO       0.068516
    121 O5          15.7570    16.1520    34.9570 O.3        6 MGO      -0.427383
    122 C6          15.3930    18.2330    36.2180 C.3        6 MGO       0.141081
    123 H61         15.9160    19.1830    36.3510 H          6 MGO       0.057384
    124 H62         15.7130    17.5560    37.0160 H          6 MGO       0.057384
    125 O6          13.9830    18.4680    36.3240 O.3        6 MGO      -0.593555
    126 HO6         13.8020    19.3610    36.0040 H          6 MGO       0.422027
    127 C1          21.5080    14.4260    33.7340 C.3        7 MGO       0.304529
    128 H1          22.3430    13.7100    33.8620 H          7 MGO       0.090782
    129 O1          21.9990    15.7770    33.4310 O.3        7 MGO      -0.453070
    130 C2          20.6470    13.9460    32.5680 C.3        7 MGO       0.092199
    131 H2          20.3180    12.9190    32.7540 H          7 MGO       0.102926
    132 O2          21.4060    13.9990    31.3500 O.3        7 MGO      -0.586639
    133 HO2         22.1820    14.5700    31.4660 H          7 MGO       0.425065
    134 C3          19.4460    14.8500    32.3810 C.3        7 MGO       0.093211
    135 H3          19.7820    15.8490    32.0850 H          7 MGO       0.064468
    136 O3          18.6430    14.2580    31.3470 O.3        7 MGO      -0.592567
    137 HO3         19.2610    13.8970    30.6970 H          7 MGO       0.421017
    138 C4          18.6380    14.9270    33.6670 C.3        7 MGO       0.127621
    139 H4          18.2120    13.9430    33.8790 H          7 MGO       0.080661
    140 C5          19.5150    15.3720    34.8490 C.3        7 MGO       0.104343
    141 H5          19.8910    16.3730    34.6250 H          7 MGO       0.068516
    142 O5          20.6810    14.4570    34.9560 O.3        7 MGO      -0.427383
    143 C6          18.8280    15.4690    36.2190 C.3        7 MGO       0.141081
    144 H61         18.4110    16.4690    36.3520 H          7 MGO       0.057384
    145 H62         19.5560    15.2970    37.0150 H          7 MGO       0.057384
    146 O6          17.7650    14.5130    36.3240 O.3        7 MGO      -0.593555
    147 HO6         16.9540    14.9280    36.0020 H          7 MGO       0.422027
@<TRIPOS>BOND
     1    17    20 1   
     2    14    16 1   
     3    14    17 1   
     4    12    14 1   
     5    12   129 1   
     6     8    10 1   
     7     8    12 1   
     8     4     6 1   
     9     4     8 1   
    10     3    33 1   
    11     1     3 1   
    12     1     4 1   
    13     1    16 1   
    14    38    41 1   
    15    35    37 1   
    16    35    38 1   
    17    33    35 1   
    18    29    31 1   
    19    29    33 1   
    20    25    27 1   
    21    25    29 1   
    22    24    54 1   
    23    22    24 1   
    24    22    25 1   
    25    22    37 1   
    26    59    62 1   
    27    56    58 1   
    28    56    59 1   
    29    54    56 1   
    30    50    52 1   
    31    50    54 1   
    32    46    48 1   
    33    46    50 1   
    34    45    75 1   
    35    43    45 1   
    36    43    46 1   
    37    43    58 1   
    38    80    83 1   
    39    77    79 1   
    40    77    80 1   
    41    75    77 1   
    42    71    73 1   
    43    71    75 1   
    44    67    69 1   
    45    67    71 1   
    46    66    96 1   
    47    64    66 1   
    48    64    67 1   
    49    64    79 1   
    50   101   104 1   
    51    98   100 1   
    52    98   101 1   
    53    96    98 1   
    54    92    94 1   
    55    92    96 1   
    56    88    90 1   
    57    88    92 1   
    58    87   117 1   
    59    85    87 1   
    60    85    88 1   
    61    85   100 1   
    62   122   125 1   
    63   119   121 1   
    64   119   122 1   
    65   117   119 1   
    66   113   115 1   
    67   113   117 1   
    68   109   111 1   
    69   109   113 1   
    70   108   138 1   
    71   106   108 1   
    72   106   109 1   
    73   106   121 1   
    74   143   146 1   
    75   140   142 1   
    76   140   143 1   
    77   138   140 1   
    78   134   136 1   
    79   134   138 1   
    80   130   132 1   
    81   130   134 1   
    82   127   129 1   
    83   127   130 1   
    84   127   142 1   
    85    20    21 1   
    86    17    18 1   
    87    17    19 1   
    88    14    15 1   
    89    12    13 1   
    90    10    11 1   
    91     8     9 1   
    92     6     7 1   
    93     4     5 1   
    94     1     2 1   
    95    41    42 1   
    96    38    39 1   
    97    38    40 1   
    98    35    36 1   
    99    33    34 1   
   100    31    32 1   
   101    29    30 1   
   102    27    28 1   
   103    25    26 1   
   104    22    23 1   
   105    62    63 1   
   106    59    60 1   
   107    59    61 1   
   108    56    57 1   
   109    54    55 1   
   110    52    53 1   
   111    50    51 1   
   112    48    49 1   
   113    46    47 1   
   114    43    44 1   
   115    83    84 1   
   116    80    81 1   
   117    80    82 1   
   118    77    78 1   
   119    75    76 1   
   120    73    74 1   
   121    71    72 1   
   122    69    70 1   
   123    67    68 1   
   124    64    65 1   
   125   104   105 1   
   126   101   102 1   
   127   101   103 1   
   128    98    99 1   
   129    96    97 1   
   130    94    95 1   
   131    92    93 1   
   132    90    91 1   
   133    88    89 1   
   134    85    86 1   
   135   125   126 1   
   136   122   123 1   
   137   122   124 1   
   138   119   120 1   
   139   117   118 1   
   140   115   116 1   
   141   113   114 1   
   142   111   112 1   
   143   109   110 1   
   144   106   107 1   
   145   146   147 1   
   146   143   144 1   
   147   143   145 1   
   148   140   141 1   
   149   138   139 1   
   150   136   137 1   
   151   134   135 1   
   152   132   133 1   
   153   130   131 1   
   154   127   128 1   
@<TRIPOS>SUBSTRUCTURE
     1 MGO         1 TEMP              0 ****  ****    0 ROOT
