@<TRIPOS>MOLECULE
Cpptraj generated mol2 file.
   23    23     1     0     0
SMALL
USER_CHARGES


@<TRIPOS>ATOM
      1 C1         20.6150   21.7010   38.4330 c          1 PB4      0.906399
      2 O1         21.2540   22.7440   38.4350 o          1 PB4     -0.851989
      3 O2         21.0840   20.7050   38.9660 o          1 PB4     -0.851989
      4 C2         19.2130   21.6480   37.7800 c3         1 PB4     -0.199444
      5 H1         18.6020   22.5000   38.1150 hc         1 PB4      0.022695
      6 H2         18.6550   20.7530   38.0950 hc         1 PB4      0.022695
      7 C3         19.2930   21.6760   36.2380 c3         1 PB4     -0.041409
      8 H3         18.2780   21.7390   35.8330 hc         1 PB4      0.017696
      9 H4         19.8240   22.5710   35.9050 hc         1 PB4      0.017696
     10 C4         19.9810   20.4180   35.6660 c3         1 PB4     -0.070116
     11 H5         19.4680   19.5240   36.0310 hc         1 PB4      0.077183
     12 H6         21.0110   20.3610   36.0270 hc         1 PB4      0.077183
     13 C5         19.9820   20.4150   34.1450 ca         1 PB4     -0.040309
     14 C6         18.9330   19.8200   33.4410 ca         1 PB4     -0.135030
     15 H7         18.1080   19.3560   33.9800 ha         1 PB4      0.138969
     16 C7         18.9330   19.8220   32.0470 ca         1 PB4     -0.138031
     17 H8         18.1120   19.3570   31.5020 ha         1 PB4      0.114475
     18 C8         19.9810   20.4180   31.3480 ca         1 PB4     -0.158035
     19 H9         19.9800   20.4190   30.2590 ha         1 PB4      0.110975
     20 C9         21.0300   21.0130   32.0470 ca         1 PB4     -0.138031
     21 H10        21.8500   21.4800   31.5030 ha         1 PB4      0.114475
     22 C10        21.0310   21.0120   33.4410 ca         1 PB4     -0.135030
     23 H11        21.8530   21.4810   33.9810 ha         1 PB4      0.138972
@<TRIPOS>BOND
    1    20    22 1
    2    18    20 1
    3    16    18 1
    4    14    16 1
    5    13    14 1
    6    13    22 1
    7    10    13 1
    8     7    10 1
    9     4     7 1
   10     1     2 1
   11     1     3 1
   12     1     4 1
   13    22    23 1
   14    20    21 1
   15    18    19 1
   16    16    17 1
   17    14    15 1
   18    10    11 1
   19    10    12 1
   20     7     8 1
   21     7     9 1
   22     4     5 1
   23     4     6 1
@<TRIPOS>SUBSTRUCTURE
      1 PB4               1 ****               0 ****  **** 
