@<TRIPOS>MOLECULE
Cpptraj generated mol2 file.
   19    18     1     0     0
SMALL
USER_CHARGES


@<TRIPOS>ATOM
      1 C1         19.9830   20.5050   37.8440 c          1 HEX      0.907600
      2 O1         20.2350   19.9260   38.8880 o          1 HEX     -0.853800
      3 O2         19.4970   21.6240   37.8710 o          1 HEX     -0.853800
      4 C2         20.2910   19.7980   36.5190 c3         1 HEX     -0.193400
      5 H1         19.7450   18.8490   36.4810 hc         1 HEX      0.018700
      6 H2         21.3570   19.5500   36.4810 hc         1 HEX      0.018700
      7 C3         19.9280   20.6310   35.2680 c3         1 HEX     -0.065400
      8 H3         18.8620   20.8670   35.2800 hc         1 HEX      0.043200
      9 H4         20.4830   21.5720   35.2800 hc         1 HEX      0.043200
     10 C4         20.2630   19.8630   33.9710 c3         1 HEX     -0.078400
     11 H5         19.7120   18.9180   33.9530 hc         1 HEX      0.025700
     12 H6         21.3290   19.6220   33.9530 hc         1 HEX      0.025700
     13 C5         19.9020   20.6910   32.7200 c3         1 HEX     -0.081400
     14 H7         18.8360   20.9310   32.7320 hc         1 HEX      0.034700
     15 H8         20.4540   21.6350   32.7320 hc         1 HEX      0.034700
     16 C6         20.2350   19.9260   31.4260 c3         1 HEX     -0.088100
     17 H9         19.6750   18.9900   31.3760 hc         1 HEX      0.020700
     18 H10        19.9730   20.5290   30.5540 hc         1 HEX      0.020700
     19 H11        21.3020   19.6970   31.3760 hc         1 HEX      0.020700
@<TRIPOS>BOND
    1    13    16 1
    2    10    13 1
    3     7    10 1
    4     4     7 1
    5     1     2 1
    6     1     3 1
    7     1     4 1
    8    16    17 1
    9    16    18 1
   10    16    19 1
   11    13    14 1
   12    13    15 1
   13    10    11 1
   14    10    12 1
   15     7     8 1
   16     7     9 1
   17     4     5 1
   18     4     6 1
@<TRIPOS>SUBSTRUCTURE
      1 HEX               1 ****               0 ****  **** 
