@<TRIPOS>MOLECULE
Cpptraj
  147   154     1     0     0
SMALL
No Charge or Current Charge


@<TRIPOS>ATOM
      1 C1          23.9270    15.3510    33.8120 C.3        1 MGO       0.304529
      2 H1          25.0000    15.1110    33.9420 H          1 MGO       0.090782
      3 O1          23.7270    16.7740    33.5100 O.3        1 MGO      -0.453070
      4 C2          23.3930    14.5220    32.6480 C.3        1 MGO       0.092199
      5 H2          23.5850    13.4620    32.8330 H          1 MGO       0.102926
      6 O2          24.0390    14.9250    31.4290 O.3        1 MGO      -0.586639
      7 HO2         24.4550    15.7950    31.5450 H          1 MGO       0.425065
      8 C3          21.9080    14.7560    32.4590 C.3        1 MGO       0.093211
      9 H3          21.7350    15.7940    32.1640 H          1 MGO       0.064468
     10 O3          21.4780    13.8540    31.4260 O.3        1 MGO      -0.592567
     11 HO3         22.1930    13.8260    30.7760 H          1 MGO       0.421017
     12 C4          21.1600    14.4440    33.7450 C.3        1 MGO       0.127621
     13 H4          21.2450    13.3760    33.9580 H          1 MGO       0.080661
     14 C5          21.7230    15.2500    34.9270 C.3        1 MGO       0.104343
     15 H5          21.5850    16.3100    34.7040 H          1 MGO       0.068516
     16 O5          23.1830    14.9900    35.0350 O.3        1 MGO      -0.427383
     17 C6          21.0710    15.0130    36.2970 C.3        1 MGO       0.141081
     18 H61         20.2330    15.7000    36.4290 H          1 MGO       0.057384
     19 H62         21.7940    15.2030    37.0940 H          1 MGO       0.057384
     20 O6          20.5820    13.6690    36.4020 O.3        1 MGO      -0.593555
     21 HO6         19.6710    13.6540    36.0810 H          1 MGO       0.422027
     22 C1          25.9320    20.3280    33.8120 C.3        2 MGO       0.304529
     23 H1          26.7900    21.0180    33.9400 H          2 MGO       0.090782
     24 O1          24.6950    21.0590    33.5090 O.3        2 MGO      -0.453070
     25 C2          26.2470    19.3930    32.6470 C.3        2 MGO       0.092199
     26 H2          27.1970    18.8830    32.8320 H          2 MGO       0.102926
     27 O2          26.3340    20.1490    31.4280 O.3        2 MGO      -0.586639
     28 HO2         25.9140    21.0170    31.5440 H          2 MGO       0.425065
     29 C3          25.1380    18.3780    32.4600 C.3        2 MGO       0.093211
     30 H3          24.2180    18.8900    32.1640 H          2 MGO       0.064468
     31 O3          25.5750    17.4800    31.4270 O.3        2 MGO      -0.592567
     32 HO3         26.0430    18.0220    30.7750 H          2 MGO       0.421017
     33 C4          24.9150    17.5990    33.7450 C.3        2 MGO       0.127621
     34 H4          25.8050    16.9990    33.9580 H          2 MGO       0.080661
     35 C5          24.6380    18.5410    34.9270 C.3        2 MGO       0.104343
     36 H5          23.7230    19.0950    34.7040 H          2 MGO       0.068516
     37 O5          25.7510    19.5220    35.0350 O.3        2 MGO      -0.427383
     38 C6          24.4170    17.8850    36.2970 C.3        2 MGO       0.141081
     39 H61         23.3570    17.6580    36.4300 H          2 MGO       0.057384
     40 H62         24.7190    18.5680    37.0940 H          2 MGO       0.057384
     41 O6          25.1630    16.6650    36.4030 O.3        2 MGO      -0.593555
     42 HO6         24.6060    15.9430    36.0810 H          2 MGO       0.422027
     43 C1          23.2920    24.9990    33.8110 C.3        3 MGO       0.304529
     44 H1          23.2860    26.0990    33.9400 H          3 MGO       0.090782
     45 O1          21.9480    24.4860    33.5090 O.3        3 MGO      -0.453070
     46 C2          24.2180    24.6620    32.6460 C.3        3 MGO       0.092199
     47 H2          25.2090    25.0860    32.8300 H          3 MGO       0.102926
     48 O2          23.6810    25.2020    31.4280 O.3        3 MGO      -0.586639
     49 HO2         22.7410    25.4140    31.5430 H          3 MGO       0.425065
     50 C3          24.3200    23.1620    32.4580 C.3        3 MGO       0.093211
     51 H3          23.3460    22.7620    32.1640 H          3 MGO       0.064468
     52 O3          25.2950    22.9440    31.4250 O.3        3 MGO      -0.592567
     53 HO3         25.1620    23.6470    30.7740 H          3 MGO       0.421017
     54 C4          24.7920    22.5030    33.7450 C.3        3 MGO       0.127621
     55 H4          25.8150    22.8250    33.9560 H          3 MGO       0.080661
     56 C5          23.8820    22.8730    34.9260 C.3        3 MGO       0.104343
     57 H5          22.8790    22.5030    34.7030 H          3 MGO       0.068516
     58 O5          23.8090    24.3550    35.0340 O.3        3 MGO      -0.427383
     59 C6          24.2580    22.2910    36.2960 C.3        3 MGO       0.141081
     60 H61         23.7750    21.3210    36.4290 H          3 MGO       0.057384
     61 H62         23.9120    22.9540    37.0940 H          3 MGO       0.057384
     62 O6          25.6770    22.1140    36.4020 O.3        3 MGO      -0.593555
     63 HO6         25.8940    21.2280    36.0800 H          3 MGO       0.422027
     64 C1          17.9930    25.8460    33.8130 C.3        4 MGO       0.304529
     65 H1          17.1300    26.5280    33.9410 H          4 MGO       0.090782
     66 O1          17.5570    24.4760    33.5100 O.3        4 MGO      -0.453070
     67 C2          18.8340    26.3610    32.6480 C.3        4 MGO       0.092199
     68 H2          19.1200    27.4000    32.8330 H          4 MGO       0.102926
     69 O2          18.0770    26.2780    31.4280 O.3        4 MGO      -0.586639
     70 HO2         17.3240    25.6750    31.5450 H          4 MGO       0.425065
     71 C3          20.0700    25.5060    32.4590 C.3        4 MGO       0.093211
     72 H3          19.7760    24.4950    32.1640 H          4 MGO       0.064468
     73 O3          20.8490    26.1310    31.4260 O.3        4 MGO      -0.592567
     74 HO3         20.2160    26.4670    30.7760 H          4 MGO       0.421017
     75 C4          20.8800    25.4620    33.7440 C.3        4 MGO       0.127621
     76 H4          21.2660    26.4620    33.9570 H          4 MGO       0.080661
     77 C5          20.0240    24.9820    34.9260 C.3        4 MGO       0.104343
     78 H5          19.6870    23.9660    34.7040 H          4 MGO       0.068516
     79 O5          18.8200    25.8490    35.0350 O.3        4 MGO      -0.427383
     80 C6          20.7130    24.9130    36.2960 C.3        4 MGO       0.141081
     81 H61         21.1710    23.9290    36.4290 H          4 MGO       0.057384
     82 H62         19.9790    25.0550    37.0940 H          4 MGO       0.057384
     83 O6          21.7360    25.9100    36.4020 O.3        4 MGO      -0.593555
     84 HO6         22.5640    25.5300    36.0800 H          4 MGO       0.422027
     85 C1          14.0270    22.2320    33.8130 C.3        5 MGO       0.304529
     86 H1          12.9560    21.9830    33.9420 H          5 MGO       0.090782
     87 O1          14.8250    21.0380    33.5100 O.3        5 MGO      -0.453070
     88 C2          14.1490    23.2110    32.6480 C.3        5 MGO       0.092199
     89 H2          13.5150    24.0830    32.8340 H          5 MGO       0.102926
     90 O2          13.7410    22.5680    31.4300 O.3        5 MGO      -0.586639
     91 HO2         13.7440    21.6040    31.5450 H          5 MGO       0.425065
     92 C3          15.5880    23.6450    32.4600 C.3        5 MGO       0.093211
     93 H3          16.1950    22.7840    32.1650 H          5 MGO       0.064468
     94 O3          15.5840    24.6430    31.4270 O.3        5 MGO      -0.592567
     95 HO3         14.9280    24.3580    30.7760 H          5 MGO       0.421017
     96 C4          16.1270    24.2500    33.7460 C.3        5 MGO       0.127621
     97 H4          15.5860    25.1760    33.9590 H          5 MGO       0.080661
     98 C5          15.9690    23.2800    34.9270 C.3        5 MGO       0.104343
     99 H5          16.5530    22.3850    34.7040 H          5 MGO       0.068516
    100 O5          14.5400    22.8800    35.0360 O.3        5 MGO      -0.427383
    101 C6          16.4530    23.7760    36.2970 C.3        5 MGO       0.141081
    102 H61         17.5070    23.5210    36.4290 H          5 MGO       0.057384
    103 H62         15.8850    23.2910    37.0950 H          5 MGO       0.057384
    104 O6          16.3110    25.1990    36.4030 O.3        5 MGO      -0.593555
    105 HO6         17.1250    25.6080    36.0810 H          5 MGO       0.422027
    106 C1          14.3800    16.8780    33.8120 C.3        6 MGO       0.304529
    107 H1          13.9060    15.8850    33.9400 H          6 MGO       0.090782
    108 O1          15.8120    16.7570    33.5090 O.3        6 MGO      -0.453070
    109 C2          13.6900    17.5840    32.6470 C.3        6 MGO       0.092199
    110 H2          12.6140    17.6320    32.8320 H          6 MGO       0.102926
    111 O2          13.9400    16.8650    31.4280 O.3        6 MGO      -0.586639
    112 HO2         14.6950    16.2650    31.5430 H          6 MGO       0.425065
    113 C3          14.2490    18.9790    32.4590 C.3        6 MGO       0.093211
    114 H3          15.3000    18.9170    32.1640 H          6 MGO       0.064468
    115 O3          13.4660    19.5990    31.4260 O.3        6 MGO      -0.592567
    116 HO3         13.2800    18.9080    30.7750 H          6 MGO       0.421017
    117 C4          14.1110    19.7780    33.7460 C.3        6 MGO       0.127621
    118 H4          13.0500    19.9320    33.9570 H          6 MGO       0.080661
    119 C5          14.7710    19.0490    34.9260 C.3        6 MGO       0.104343
    120 H5          15.8340    18.9480    34.7040 H          6 MGO       0.068516
    121 O5          14.1930    17.6830    35.0350 O.3        6 MGO      -0.427383
    122 C6          14.6840    19.7360    36.2960 C.3        6 MGO       0.141081
    123 H61         15.5410    20.4010    36.4290 H          6 MGO       0.057384
    124 H62         14.7090    18.9890    37.0940 H          6 MGO       0.057384
    125 O6          13.4830    20.5120    36.4020 O.3        6 MGO      -0.593555
    126 HO6         13.6710    21.4040    36.0820 H          6 MGO       0.422027
    127 C1          18.7860    13.8160    33.8120 C.3        7 MGO       0.304529
    128 H1          19.2680    12.8270    33.9400 H          7 MGO       0.090782
    129 O1          19.7730    14.8600    33.5090 O.3        7 MGO      -0.453070
    130 C2          17.8050    13.7170    32.6460 C.3        7 MGO       0.092199
    131 H2          17.0960    12.9050    32.8320 H          7 MGO       0.102926
    132 O2          18.5220    13.4640    31.4280 O.3        7 MGO      -0.586639
    133 HO2         19.4620    13.6810    31.5440 H          7 MGO       0.425065
    134 C3          17.0620    15.0230    32.4590 C.3        7 MGO       0.093211
    135 H3          17.7660    15.8070    32.1630 H          7 MGO       0.064468
    136 O3          16.0890    14.7980    31.4250 O.3        7 MGO      -0.592567
    137 HO3         16.5130    14.2220    30.7750 H          7 MGO       0.421017
    138 C4          16.3510    15.4150    33.7450 C.3        7 MGO       0.127621
    139 H4          15.5690    14.6810    33.9570 H          7 MGO       0.080661
    140 C5          17.3320    15.4750    34.9270 C.3        7 MGO       0.104343
    141 H5          18.0750    16.2440    34.7030 H          7 MGO       0.068516
    142 O5          18.0390    14.1720    35.0340 O.3        7 MGO      -0.427383
    143 C6          16.7400    15.8370    36.2970 C.3        7 MGO       0.141081
    144 H61         16.7540    16.9200    36.4300 H          7 MGO       0.057384
    145 H62         17.3390    15.3900    37.0930 H          7 MGO       0.057384
    146 O6          15.3840    15.3810    36.4020 O.3        7 MGO      -0.593555
    147 HO6         14.8050    16.0830    36.0800 H          7 MGO       0.422027
@<TRIPOS>BOND
     1    17    20 1   
     2    14    16 1   
     3    14    17 1   
     4    12    14 1   
     5    12   129 1   
     6     8    10 1   
     7     8    12 1   
     8     4     6 1   
     9     4     8 1   
    10     3    33 1   
    11     1     3 1   
    12     1     4 1   
    13     1    16 1   
    14    38    41 1   
    15    35    37 1   
    16    35    38 1   
    17    33    35 1   
    18    29    31 1   
    19    29    33 1   
    20    25    27 1   
    21    25    29 1   
    22    24    54 1   
    23    22    24 1   
    24    22    25 1   
    25    22    37 1   
    26    59    62 1   
    27    56    58 1   
    28    56    59 1   
    29    54    56 1   
    30    50    52 1   
    31    50    54 1   
    32    46    48 1   
    33    46    50 1   
    34    45    75 1   
    35    43    45 1   
    36    43    46 1   
    37    43    58 1   
    38    80    83 1   
    39    77    79 1   
    40    77    80 1   
    41    75    77 1   
    42    71    73 1   
    43    71    75 1   
    44    67    69 1   
    45    67    71 1   
    46    66    96 1   
    47    64    66 1   
    48    64    67 1   
    49    64    79 1   
    50   101   104 1   
    51    98   100 1   
    52    98   101 1   
    53    96    98 1   
    54    92    94 1   
    55    92    96 1   
    56    88    90 1   
    57    88    92 1   
    58    87   117 1   
    59    85    87 1   
    60    85    88 1   
    61    85   100 1   
    62   122   125 1   
    63   119   121 1   
    64   119   122 1   
    65   117   119 1   
    66   113   115 1   
    67   113   117 1   
    68   109   111 1   
    69   109   113 1   
    70   108   138 1   
    71   106   108 1   
    72   106   109 1   
    73   106   121 1   
    74   143   146 1   
    75   140   142 1   
    76   140   143 1   
    77   138   140 1   
    78   134   136 1   
    79   134   138 1   
    80   130   132 1   
    81   130   134 1   
    82   127   129 1   
    83   127   130 1   
    84   127   142 1   
    85    20    21 1   
    86    17    18 1   
    87    17    19 1   
    88    14    15 1   
    89    12    13 1   
    90    10    11 1   
    91     8     9 1   
    92     6     7 1   
    93     4     5 1   
    94     1     2 1   
    95    41    42 1   
    96    38    39 1   
    97    38    40 1   
    98    35    36 1   
    99    33    34 1   
   100    31    32 1   
   101    29    30 1   
   102    27    28 1   
   103    25    26 1   
   104    22    23 1   
   105    62    63 1   
   106    59    60 1   
   107    59    61 1   
   108    56    57 1   
   109    54    55 1   
   110    52    53 1   
   111    50    51 1   
   112    48    49 1   
   113    46    47 1   
   114    43    44 1   
   115    83    84 1   
   116    80    81 1   
   117    80    82 1   
   118    77    78 1   
   119    75    76 1   
   120    73    74 1   
   121    71    72 1   
   122    69    70 1   
   123    67    68 1   
   124    64    65 1   
   125   104   105 1   
   126   101   102 1   
   127   101   103 1   
   128    98    99 1   
   129    96    97 1   
   130    94    95 1   
   131    92    93 1   
   132    90    91 1   
   133    88    89 1   
   134    85    86 1   
   135   125   126 1   
   136   122   123 1   
   137   122   124 1   
   138   119   120 1   
   139   117   118 1   
   140   115   116 1   
   141   113   114 1   
   142   111   112 1   
   143   109   110 1   
   144   106   107 1   
   145   146   147 1   
   146   143   144 1   
   147   143   145 1   
   148   140   141 1   
   149   138   139 1   
   150   136   137 1   
   151   134   135 1   
   152   132   133 1   
   153   130   131 1   
   154   127   128 1   
@<TRIPOS>SUBSTRUCTURE
     1 MGO         1 TEMP              0 ****  ****    0 ROOT
