@<TRIPOS>MOLECULE
Cpptraj generated mol2 file.
  147   154     7     0     0
SMALL
USER_CHARGES


@<TRIPOS>ATOM
      1 C1         19.0870   14.2930   34.0290 c3         1 MGO      0.304529
      2 H1         18.3290   13.4910   33.9410 h2         1 MGO      0.090782
      3 O1         18.4680   15.5860   34.3490 os         1 MGO     -0.453070
      4 C2         20.0460   13.9180   35.1540 c3         1 MGO      0.092199
      5 H2         20.4740   12.9310   34.9580 h1         1 MGO      0.102926
      6 O2         19.3430   13.9000   36.4060 oh         1 MGO     -0.586639
      7 HO2        18.5050   14.3860   36.3250 ho         1 MGO      0.425065
      8 C3         21.1500   14.9470   35.2820 c3         1 MGO      0.093211
      9 H3         20.7250   15.9060   35.5880 h1         1 MGO      0.064468
     10 O3         22.0600   14.4520   36.2800 oh         1 MGO     -0.592567
     11 HO3        21.5140   14.0340   36.9600 ho         1 MGO      0.421017
     12 C4         21.8860   15.0970   33.9600 c3         1 MGO      0.127621
     13 H4         22.4060   14.1630   33.7320 h1         1 MGO      0.080661
     14 C5         20.9140   15.4370   32.8180 c3         1 MGO      0.104343
     15 H5         20.4440   16.3930   33.0530 h1         1 MGO      0.068516
     16 O5         19.8480   14.4020   32.7690 os         1 MGO     -0.427383
     17 C6         21.5240   15.5930   31.4170 c3         1 MGO      0.141081
     18 H61        21.8240   16.6320   31.2610 h1         1 MGO      0.057384
     19 H62        20.7830   15.3370   30.6560 h1         1 MGO      0.057384
     20 O6         22.6760   14.7550   31.2670 oh         1 MGO     -0.593555
     21 HO6        23.4520   15.2560   31.5490 ho         1 MGO      0.422027
     22 C1         14.6380   17.2860   34.2050 c3         2 MGO      0.304529
     23 H1         13.5350   17.3750   34.1260 h2         2 MGO      0.090782
     24 O1         15.2640   18.5890   34.4670 os         2 MGO     -0.453070
     25 C2         14.9550   16.3470   35.3650 c3         2 MGO      0.092199
     26 H2         14.4470   15.3900   35.2120 h1         2 MGO      0.102926
     27 O2         14.5150   16.9350   36.6000 oh         2 MGO     -0.586639
     28 HO2        14.3690   17.8880   36.4830 ho         2 MGO      0.425065
     29 C3         16.4490   16.1320   35.4870 c3         2 MGO      0.093211
     30 H3         16.9360   17.0750   35.7510 h1         2 MGO      0.064468
     31 O3         16.6390   15.1520   36.5210 oh         2 MGO     -0.592567
     32 HO3        15.9780   15.3440   37.2010 ho         2 MGO      0.421017
     33 C4         17.0120   15.6000   34.1780 c3         2 MGO      0.127621
     34 H4         16.6030   14.6020   33.9950 h1         2 MGO      0.080661
     35 C5         16.6570   16.5240   33.0030 c3         2 MGO      0.104343
     36 H5         17.1140   17.4980   33.1960 h1         2 MGO      0.068516
     37 O5         15.1830   16.7100   32.9600 os         2 MGO     -0.427383
     38 C6         17.1460   16.0920   31.6140 c3         2 MGO      0.141081
     39 H61        18.1440   16.4980   31.4310 h1         2 MGO      0.057384
     40 H62        16.4760   16.4810   30.8420 h1         2 MGO      0.057384
     41 O6         17.2090   14.6630   31.5170 oh         2 MGO     -0.593555
     42 HO6        18.0890   14.3800   31.8030 ho         2 MGO      0.422027
     43 C1         14.1980   22.6340   34.1750 c3         3 MGO      0.304529
     44 H1         13.5790   23.5470   34.0660 h2         3 MGO      0.090782
     45 O1         15.6100   22.9670   34.4100 os         3 MGO     -0.453070
     46 C2         13.6750   21.8460   35.3730 c3         3 MGO      0.092199
     47 H2         12.6100   21.6400   35.2390 h1         3 MGO      0.102926
     48 O2         13.8730   22.6060   36.5760 oh         3 MGO     -0.586639
     49 HO2        14.5250   23.3090   36.4250 ho         3 MGO      0.425065
     50 C3         14.4410   20.5500   35.5380 c3         3 MGO      0.093211
     51 H3         15.4840   20.7680   35.7830 h1         3 MGO      0.064468
     52 O3         13.8050   19.8320   36.6080 oh         3 MGO     -0.592567
     53 HO3        13.5500   20.4950   37.2650 ho         3 MGO      0.421017
     54 C4         14.3620   19.7280   34.2610 c3         3 MGO      0.127621
     55 H4         13.3260   19.4180   34.1000 h1         3 MGO      0.080661
     56 C5         14.8530   20.5340   33.0490 c3         3 MGO      0.104343
     57 H5         15.9000   20.7920   33.2210 h1         3 MGO      0.068516
     58 O5         14.0760   21.8000   32.9640 os         3 MGO     -0.427383
     59 C6         14.8050   19.8280   31.6860 c3         3 MGO      0.141081
     60 H61        15.7430   19.2940   31.5160 h1         3 MGO      0.057384
     61 H62        14.6820   20.5630   30.8860 h1         3 MGO      0.057384
     62 O6         13.7270   18.8830   31.6390 oh         3 MGO     -0.593555
     63 HO6        14.0600   18.0320   31.9530 ho         3 MGO      0.422027
     64 C1         18.1020   26.3100   33.9610 c3         4 MGO      0.304529
     65 H1         18.4270   27.3570   33.8070 h2         4 MGO      0.090782
     66 O1         19.2440   25.4240   34.2200 os         4 MGO     -0.453070
     67 C2         17.1720   26.2750   35.1690 c3         4 MGO      0.092199
     68 H2         16.3440   26.9720   35.0150 h1         4 MGO      0.102926
     69 O2         17.9000   26.6430   36.3530 oh         4 MGO     -0.586639
     70 HO2        18.8550   26.5640   36.1930 ho         4 MGO      0.425065
     71 C3         16.6380   24.8750   35.3960 c3         4 MGO      0.093211
     72 H3         17.4620   24.2070   35.6590 h1         4 MGO      0.064468
     73 O3         15.6910   24.9640   36.4720 oh         4 MGO     -0.592567
     74 HO3        16.0550   25.6040   37.1020 ho         4 MGO      0.421017
     75 C4         15.9340   24.3710   34.1460 c3         4 MGO      0.127621
     76 H4         15.0450   24.9810   33.9680 h1         4 MGO      0.080661
     77 C5         16.8580   24.4440   32.9200 c3         4 MGO      0.104343
     78 H5         17.7160   23.7940   33.1100 h1         4 MGO      0.068516
     79 O5         17.3620   25.8360   32.7760 os         4 MGO     -0.427383
     80 C6         16.2650   23.9870   31.5800 c3         4 MGO      0.141081
     81 H61        16.4310   22.9160   31.4490 h1         4 MGO      0.057384
     82 H62        16.7540   24.5080   30.7540 h1         4 MGO      0.057384
     83 O6         14.8540   24.2370   31.5360 oh         4 MGO     -0.593555
     84 HO6        14.3980   23.4610   31.8880 ho         4 MGO      0.422027
     85 C1         23.4070   25.5450   33.7240 c3         5 MGO      0.304529
     86 H1         24.4270   25.9380   33.5440 h2         5 MGO      0.090782
     87 O1         23.4320   24.1110   34.0410 os         5 MGO     -0.453070
     88 C2         22.8120   26.2970   34.9110 c3         5 MGO      0.092199
     89 H2         22.8370   27.3730   34.7120 h1         5 MGO      0.102926
     90 O2         23.5650   26.0050   36.0980 oh         5 MGO     -0.586639
     91 HO2        24.0970   25.2050   35.9650 ho         5 MGO      0.425065
     92 C3         21.3870   25.8510   35.1680 c3         5 MGO      0.093211
     93 H3         21.3820   24.8010   35.4740 h1         5 MGO      0.064468
     94 O3         20.8770   26.6890   36.2170 oh         5 MGO     -0.592567
     95 HO3        21.6090   26.8270   36.8340 ho         5 MGO      0.421017
     96 C4         20.5430   26.0380   33.9170 c3         5 MGO      0.127621
     97 H4         20.4610   27.1040   33.6980 h1         5 MGO      0.080661
     98 C5         21.1640   25.3110   32.7130 c3         5 MGO      0.104343
     99 H5         21.1940   24.2450   32.9450 h1         5 MGO      0.068516
    100 O5         22.5650   25.7820   32.5350 os         5 MGO     -0.427383
    101 C6         20.4230   25.4380   31.3740 c3         5 MGO      0.141081
    102 H61        19.6880   24.6340   31.2840 h1         5 MGO      0.057384
    103 H62        21.1280   25.3480   30.5450 h1         5 MGO      0.057384
    104 O6         19.7370   26.6940   31.2890 oh         5 MGO     -0.593555
    105 HO6        18.8500   26.5790   31.6520 ho         5 MGO      0.422027
    106 C1         26.1200   20.9170   33.6440 c3         6 MGO      0.304529
    107 H1         27.0640   20.3590   33.4780 h2         6 MGO      0.090782
    108 O1         25.0190   20.0150   34.0060 os         6 MGO     -0.453070
    109 C2         26.3460   21.8990   34.7910 c3         6 MGO      0.092199
    110 H2         27.2010   22.5410   34.5600 h1         6 MGO      0.102926
    111 O2         26.6000   21.1750   36.0060 oh         6 MGO     -0.586639
    112 HO2        26.3080   20.2530   35.9130 ho         6 MGO      0.425065
    113 C3         25.1110   22.7410   35.0270 c3         6 MGO      0.093211
    114 H3         24.2910   22.1030   35.3670 h1         6 MGO      0.064468
    115 O3         25.4580   23.7040   36.0370 oh         6 MGO     -0.592567
    116 HO3        26.0290   23.2420   36.6660 ho         6 MGO      0.421017
    117 C4         24.7190   23.4680   33.7510 c3         6 MGO      0.127621
    118 H4         25.4990   24.1880   33.4960 h1         6 MGO      0.080661
    119 C5         24.5280   22.4840   32.5870 c3         6 MGO      0.104343
    120 H5         23.7170   21.8040   32.8530 h1         6 MGO      0.068516
    121 O5         25.7680   21.6760   32.4290 os         6 MGO     -0.427383
    122 C6         24.1520   23.0880   31.2270 c3         6 MGO      0.141081
    123 H61        23.0640   23.1560   31.1440 h1         6 MGO      0.057384
    124 H62        24.5140   22.4480   30.4180 h1         6 MGO      0.057384
    125 O6         24.7040   24.4030   31.0830 oh         6 MGO     -0.593555
    126 HO6        24.0620   25.0380   31.4270 ho         6 MGO      0.422027
    127 C1         24.1970   15.9090   33.7800 c3         7 MGO      0.304529
    128 H1         24.3480   14.8200   33.6540 h2         7 MGO      0.090782
    129 O1         22.8090   16.2230   34.1430 os         7 MGO     -0.453070
    130 C2         25.1180   16.3890   34.8990 c3         7 MGO      0.092199
    131 H2         26.1500   16.1130   34.6690 h1         7 MGO      0.102926
    132 O2         24.7210   15.7880   36.1430 oh         7 MGO     -0.586639
    133 HO2        23.8180   15.4380   36.0720 ho         7 MGO      0.425065
    134 C3         25.0060   17.8880   35.0780 c3         7 MGO      0.093211
    135 H3         23.9980   18.1440   35.4180 h1         7 MGO      0.064468
    136 O3         25.9840   18.2580   36.0650 oh         7 MGO     -0.592567
    137 HO3        25.9870   17.5480   36.7220 ho         7 MGO      0.421017
    138 C4         25.3150   18.6000   33.7700 c3         7 MGO      0.127621
    139 H4         26.3640   18.4290   33.5110 h1         7 MGO      0.080661
    140 C5         24.4180   18.0870   32.6330 c3         7 MGO      0.104343
    141 H5         23.3810   18.3090   32.9020 h1         7 MGO      0.068516
    142 O5         24.5580   16.6120   32.5320 os         7 MGO     -0.427383
    143 C6         24.6410   18.7060   31.2450 c3         7 MGO      0.141081
    144 H61        24.0150   19.5940   31.1330 h1         7 MGO      0.057384
    145 H62        24.3590   17.9920   30.4670 h1         7 MGO      0.057384
    146 O6         26.0120   19.0890   31.0740 oh         7 MGO     -0.593555
    147 HO6        26.1110   19.9990   31.3830 ho         7 MGO      0.422027
@<TRIPOS>BOND
    1    17    20 1
    2    14    16 1
    3    14    17 1
    4    12    14 1
    5    12   129 1
    6     8    10 1
    7     8    12 1
    8     4     6 1
    9     4     8 1
   10     3    33 1
   11     1     3 1
   12     1     4 1
   13     1    16 1
   14    38    41 1
   15    35    37 1
   16    35    38 1
   17    33    35 1
   18    29    31 1
   19    29    33 1
   20    25    27 1
   21    25    29 1
   22    24    54 1
   23    22    24 1
   24    22    25 1
   25    22    37 1
   26    59    62 1
   27    56    58 1
   28    56    59 1
   29    54    56 1
   30    50    52 1
   31    50    54 1
   32    46    48 1
   33    46    50 1
   34    45    75 1
   35    43    45 1
   36    43    46 1
   37    43    58 1
   38    80    83 1
   39    77    79 1
   40    77    80 1
   41    75    77 1
   42    71    73 1
   43    71    75 1
   44    67    69 1
   45    67    71 1
   46    66    96 1
   47    64    66 1
   48    64    67 1
   49    64    79 1
   50   101   104 1
   51    98   100 1
   52    98   101 1
   53    96    98 1
   54    92    94 1
   55    92    96 1
   56    88    90 1
   57    88    92 1
   58    87   117 1
   59    85    87 1
   60    85    88 1
   61    85   100 1
   62   122   125 1
   63   119   121 1
   64   119   122 1
   65   117   119 1
   66   113   115 1
   67   113   117 1
   68   109   111 1
   69   109   113 1
   70   108   138 1
   71   106   108 1
   72   106   109 1
   73   106   121 1
   74   143   146 1
   75   140   142 1
   76   140   143 1
   77   138   140 1
   78   134   136 1
   79   134   138 1
   80   130   132 1
   81   130   134 1
   82   127   129 1
   83   127   130 1
   84   127   142 1
   85    20    21 1
   86    17    18 1
   87    17    19 1
   88    14    15 1
   89    12    13 1
   90    10    11 1
   91     8     9 1
   92     6     7 1
   93     4     5 1
   94     1     2 1
   95    41    42 1
   96    38    39 1
   97    38    40 1
   98    35    36 1
   99    33    34 1
  100    31    32 1
  101    29    30 1
  102    27    28 1
  103    25    26 1
  104    22    23 1
  105    62    63 1
  106    59    60 1
  107    59    61 1
  108    56    57 1
  109    54    55 1
  110    52    53 1
  111    50    51 1
  112    48    49 1
  113    46    47 1
  114    43    44 1
  115    83    84 1
  116    80    81 1
  117    80    82 1
  118    77    78 1
  119    75    76 1
  120    73    74 1
  121    71    72 1
  122    69    70 1
  123    67    68 1
  124    64    65 1
  125   104   105 1
  126   101   102 1
  127   101   103 1
  128    98    99 1
  129    96    97 1
  130    94    95 1
  131    92    93 1
  132    90    91 1
  133    88    89 1
  134    85    86 1
  135   125   126 1
  136   122   123 1
  137   122   124 1
  138   119   120 1
  139   117   118 1
  140   115   116 1
  141   113   114 1
  142   111   112 1
  143   109   110 1
  144   106   107 1
  145   146   147 1
  146   143   144 1
  147   143   145 1
  148   140   141 1
  149   138   139 1
  150   136   137 1
  151   134   135 1
  152   132   133 1
  153   130   131 1
  154   127   128 1
@<TRIPOS>SUBSTRUCTURE
      1 MGO               1 ****               0 ****  **** 
      2 MGO              22 ****               0 ****  **** 
      3 MGO              43 ****               0 ****  **** 
      4 MGO              64 ****               0 ****  **** 
      5 MGO              85 ****               0 ****  **** 
      6 MGO             106 ****               0 ****  **** 
      7 MGO             127 ****               0 ****  **** 
