@<TRIPOS>MOLECULE
Cpptraj
   21    21     1     0     0
SMALL
No Charge or Current Charge


@<TRIPOS>ATOM
      1 C1          22.4990    20.4080    33.1060 C.3        1 MO3       0.115700
      2 H2          23.2490    20.4100    32.3100 H          1 MO3       0.041033
      3 H3          22.6270    21.3030    33.7220 H          1 MO3       0.041033
      4 H4          22.6300    19.5130    33.7200 H          1 MO3       0.041033
      5 O1          21.1770    20.4060    32.5130 O.3        1 MO3      -0.352900
      6 C2          20.0120    20.4040    33.2590 C.ar       1 MO3       0.105100
      7 C3          18.8000    20.4020    32.5690 C.ar       1 MO3      -0.191000
      8 H5          18.8040    20.4020    31.4800 H          1 MO3       0.123000
      9 C4          17.5930    20.3990    33.2610 C.ar       1 MO3      -0.119000
     10 H6          16.6480    20.3980    32.7150 H          1 MO3       0.106000
     11 C5          17.5950    20.3990    34.6550 C.ar       1 MO3      -0.185000
     12 H7          16.6500    20.3960    35.1950 H          1 MO3       0.120000
     13 C6          18.8010    20.3990    35.3610 C.ar       1 MO3       0.014700
     14 C7          20.0080    20.4030    34.6580 C.ar       1 MO3      -0.192000
     15 H8          20.9420    20.4050    35.2130 H          1 MO3       0.196000
     16 C8          18.8000    20.4020    36.8810 C.3        1 MO3      -0.177100
     17 H9          17.8910    20.8880    37.2510 H          1 MO3       0.039200
     18 H10         19.6350    21.0110    37.2460 H          1 MO3       0.039200
     19 C9          18.9050    18.9860    37.4400 C.2        1 MO3       0.918600
     20 O2          17.8920    18.3780    37.7450 O.co2      1 MO3      -0.841800
     21 O3          20.0060    18.4780    37.5930 O.co2      1 MO3      -0.841799
@<TRIPOS>BOND
     1    19    20 1   
     2    19    21 1   
     3    16    19 1   
     4    13    14 ar  
     5    13    16 1   
     6    11    13 ar  
     7     9    11 ar  
     8     7     9 ar  
     9     6     7 ar  
    10     6    14 ar  
    11     5     6 1   
    12     1     5 1   
    13    16    17 1   
    14    16    18 1   
    15    14    15 1   
    16    11    12 1   
    17     9    10 1   
    18     7     8 1   
    19     1     2 1   
    20     1     3 1   
    21     1     4 1   
@<TRIPOS>SUBSTRUCTURE
     1 MO3         1 TEMP              0 ****  ****    0 ROOT
