@<TRIPOS>MOLECULE
Cpptraj
   16    16     1     0     0
SMALL
No Charge or Current Charge


@<TRIPOS>ATOM
      1 C1          19.6810    18.9960    33.9470 C.3        1 CPE      -0.076981
      2 H2          19.6960    19.8790    33.3030 H          1 CPE       0.042405
      3 H3          20.0740    18.1440    33.3860 H          1 CPE       0.042405
      4 C2          18.2710    18.6730    34.4540 C.3        1 CPE      -0.076981
      5 H4          17.7530    19.6010    34.7130 H          1 CPE       0.042405
      6 H5          17.6790    18.1370    33.7090 H          1 CPE       0.042405
      7 C3          18.5010    17.8370    35.7210 C.3        1 CPE      -0.097503
      8 H6          18.5570    16.7800    35.4540 H          1 CPE       0.052145
      9 H7          17.6850    17.9650    36.4370 H          1 CPE       0.052145
     10 C4          19.8660    18.2820    36.2900 C.3        1 CPE       0.139952
     11 H8          20.4930    17.4020    36.4620 H          1 CPE       0.032666
     12 C5          20.5070    19.1980    35.2270 C.3        1 CPE      -0.097503
     13 H9          20.4450    20.2450    35.5330 H          1 CPE       0.052145
     14 H10         21.5570    18.9460    35.0630 H          1 CPE       0.052145
     15 O1          19.6810    18.9960    37.5180 O.3        1 CPE      -0.599431
     16 H1          20.5940    19.1790    37.8830 H          1 CPE       0.397581
@<TRIPOS>BOND
     1    10    12 1   
     2    10    15 1   
     3     7    10 1   
     4     4     7 1   
     5     1     4 1   
     6     1    12 1   
     7    15    16 1   
     8    12    13 1   
     9    12    14 1   
    10    10    11 1   
    11     7     8 1   
    12     7     9 1   
    13     4     5 1   
    14     4     6 1   
    15     1     2 1   
    16     1     3 1   
@<TRIPOS>SUBSTRUCTURE
     1 CPE         1 TEMP              0 ****  ****    0 ROOT
