@<TRIPOS>MOLECULE
Cpptraj generated mol2 file.
  126   132     6     0     0
SMALL
USER_CHARGES


@<TRIPOS>ATOM
      1 C1         15.9260   15.3290   34.2860 c3         1 MGO      0.304529
      2 H1         14.8380   15.1940   34.1300 h2         1 MGO      0.090782
      3 O1         16.2480   16.7120   34.6590 os         1 MGO     -0.453070
      4 C2         16.3700   14.4160   35.4240 c3         1 MGO      0.092199
      5 H2         16.1190   13.3770   35.1890 h1         1 MGO      0.102926
      6 O2         15.7100   14.8170   36.6360 oh         1 MGO     -0.586639
      7 HO2        15.3940   15.7290   36.5460 ho         1 MGO      0.425065
      8 C3         17.8600   14.5550   35.6650 c3         1 MGO      0.093211
      9 H3         18.0730   15.5670   36.0180 h1         1 MGO      0.064468
     10 O3         18.2130   13.5880   36.6650 oh         1 MGO     -0.592567
     11 HO3        17.4790   13.5620   37.2960 ho         1 MGO      0.421017
     12 C4         18.6500   14.2770   34.3930 c3         1 MGO      0.127621
     13 H4         18.5810   13.2140   34.1540 h1         1 MGO      0.080661
     14 C5         18.1410   15.1210   33.2100 c3         1 MGO      0.104343
     15 H5         18.3310   16.1690   33.4500 h1         1 MGO      0.068516
     16 O5         16.6700   14.9460   33.0710 os         1 MGO     -0.427383
     17 C6         18.7950   14.8780   31.8410 c3         1 MGO      0.141081
     18 H61        19.6340   15.5620   31.7070 h1         1 MGO      0.057384
     19 H62        18.0740   15.0660   31.0420 h1         1 MGO      0.057384
     20 O6         19.2810   13.5320   31.7410 oh         1 MGO     -0.593555
     21 HO6        20.1910   13.5190   32.0630 ho         1 MGO      0.422027
     22 C1         14.7530   20.5730   34.2550 c3         2 MGO      0.304529
     23 H1         14.0920   21.4510   34.0980 h2         2 MGO      0.090782
     24 O1         16.1070   20.9870   34.6410 os         2 MGO     -0.453070
     25 C2         14.1730   19.7250   35.3800 c3         2 MGO      0.092199
     26 H2         13.1490   19.4270   35.1340 h1         2 MGO      0.102926
     27 O2         14.1810   20.4880   36.5970 oh         2 MGO     -0.586639
     28 HO2        14.8120   21.2190   36.5180 ho         2 MGO      0.425065
     29 C3         15.0360   18.5030   35.6180 c3         2 MGO      0.093211
     30 H3         16.0170   18.8220   35.9850 h1         2 MGO      0.064468
     31 O3         14.3670   17.7050   36.6080 oh         2 MGO     -0.592567
     32 HO3        13.9730   18.3250   37.2400 ho         2 MGO      0.421017
     33 C4         15.2020   17.6900   34.3430 c3         2 MGO      0.127621
     34 H4         14.2490   17.2190   34.0910 h1         2 MGO      0.080661
     35 C5         15.6880   18.5620   33.1690 c3         2 MGO      0.104343
     36 H5         16.6900   18.9180   33.4210 h1         2 MGO      0.068516
     37 O5         14.8030   19.7480   33.0330 os         2 MGO     -0.427383
     38 C6         15.8150   17.8830   31.7980 c3         2 MGO      0.141081
     39 H61        16.8290   17.4990   31.6690 h1         2 MGO      0.057384
     40 H62        15.6260   18.6080   31.0020 h1         2 MGO      0.057384
     41 O6         14.8950   16.7910   31.6810 oh         2 MGO     -0.593555
     42 HO6        15.3360   15.9930   32.0010 ho         2 MGO      0.422027
     43 C1         18.7080   24.2150   34.2840 c3         3 MGO      0.304529
     44 H1         19.1360   25.2250   34.1390 h2         3 MGO      0.090782
     45 O1         19.7380   23.2440   34.6720 os         3 MGO     -0.453070
     46 C2         17.6730   24.2830   35.4010 c3         3 MGO      0.092199
     47 H2         16.9040   25.0210   35.1540 h1         3 MGO      0.102926
     48 O2         18.3260   24.6510   36.6270 oh         3 MGO     -0.586639
     49 HO2        19.2760   24.4690   36.5550 ho         3 MGO      0.425065
     50 C3         17.0430   22.9230   35.6230 c3         3 MGO      0.093211
     51 H3         17.8060   22.2290   35.9900 h1         3 MGO      0.064468
     52 O3         16.0100   23.0970   36.6060 oh         3 MGO     -0.592567
     53 HO3        16.3430   23.7420   37.2440 ho         3 MGO      0.421017
     54 C4         16.4330   22.3820   34.3390 c3         3 MGO      0.127621
     55 H4         15.5510   22.9730   34.0830 h1         3 MGO      0.080661
     56 C5         17.4410   22.4050   33.1740 c3         3 MGO      0.104343
     57 H5         18.2490   21.7160   33.4280 h1         3 MGO      0.068516
     58 O5         18.0280   23.7670   33.0530 os         3 MGO     -0.427383
     59 C6         16.9310   21.9670   31.7950 c3         3 MGO      0.141081
     60 H61        17.1060   20.8980   31.6600 h1         3 MGO      0.057384
     61 H62        17.4690   22.4990   31.0080 h1         3 MGO      0.057384
     62 O6         15.5250   22.2180   31.6670 oh         3 MGO     -0.593555
     63 HO6        15.0520   21.4350   31.9770 ho         3 MGO      0.422027
     64 C1         23.8370   22.6110   34.3470 c3         4 MGO      0.304529
     65 H1         24.9280   22.7440   34.2130 h2         4 MGO      0.090782
     66 O1         23.5080   21.2290   34.7220 os         4 MGO     -0.453070
     67 C2         23.3690   23.5320   35.4670 c3         4 MGO      0.092199
     68 H2         23.6270   24.5690   35.2300 h1         4 MGO      0.102926
     69 O2         24.0010   23.1400   36.6950 oh         4 MGO     -0.586639
     70 HO2        24.3200   22.2270   36.6190 ho         4 MGO      0.425065
     71 C3         21.8750   23.3950   35.6760 c3         4 MGO      0.093211
     72 H3         21.6530   22.3860   36.0320 h1         4 MGO      0.064468
     73 O3         21.5000   24.3680   36.6620 oh         4 MGO     -0.592567
     74 HO3        22.2190   24.3990   37.3070 ho         4 MGO      0.421017
     75 C4         21.1130   23.6620   34.3850 c3         4 MGO      0.127621
     76 H4         21.1860   24.7240   34.1400 h1         4 MGO      0.080661
     77 C5         21.6470   22.8090   33.2200 c3         4 MGO      0.104343
     78 H5         21.4520   21.7640   33.4640 h1         4 MGO      0.068516
     79 O5         23.1200   22.9830   33.1120 os         4 MGO     -0.427383
     80 C6         21.0250   23.0440   31.8360 c3         4 MGO      0.141081
     81 H61        20.1870   22.3580   31.6880 h1         4 MGO      0.057384
     82 H62        21.7610   22.8490   31.0530 h1         4 MGO      0.057384
     83 O6         20.5410   24.3870   31.7140 oh         4 MGO     -0.593555
     84 HO6        19.6220   24.4020   32.0170 ho         4 MGO      0.422027
     85 C1         25.0110   17.3660   34.3780 c3         5 MGO      0.304529
     86 H1         25.6740   16.4870   34.2430 h2         5 MGO      0.090782
     87 O1         23.6470   16.9580   34.7380 os         5 MGO     -0.453070
     88 C2         25.5670   18.2210   35.5100 c3         5 MGO      0.092199
     89 H2         26.5950   18.5190   35.2840 h1         5 MGO      0.102926
     90 O2         25.5310   17.4670   36.7330 oh         5 MGO     -0.586639
     91 HO2        24.9020   16.7360   36.6440 ho         5 MGO      0.425065
     92 C3         24.6990   19.4460   35.7210 c3         5 MGO      0.093211
     93 H3         23.7100   19.1300   36.0670 h1         5 MGO      0.064468
     94 O3         25.3470   20.2510   36.7190 oh         5 MGO     -0.592567
     95 HO3        25.7240   19.6360   37.3630 ho         5 MGO      0.421017
     96 C4         24.5610   20.2500   34.4360 c3         5 MGO      0.127621
     97 H4         25.5190   20.7190   34.2020 h1         5 MGO      0.080661
     98 C5         24.1000   19.3700   33.2590 c3         5 MGO      0.104343
     99 H5         23.0940   19.0140   33.4920 h1         5 MGO      0.068516
    100 O5         24.9870   18.1810   33.1500 os         5 MGO     -0.427383
    101 C6         24.0040   20.0380   31.8800 c3         5 MGO      0.141081
    102 H61        22.9910   20.4210   31.7270 h1         5 MGO      0.057384
    103 H62        24.2100   19.3080   31.0930 h1         5 MGO      0.057384
    104 O6         24.9250   21.1290   31.7760 oh         5 MGO     -0.593555
    105 HO6        24.4780   21.9290   32.0790 ho         5 MGO      0.422027
    106 C1         21.0570   13.7240   34.3480 c3         6 MGO      0.304529
    107 H1         20.6300   12.7140   34.2010 h2         6 MGO      0.090782
    108 O1         20.0170   14.6970   34.7080 os         6 MGO     -0.453070
    109 C2         22.0670   13.6630   35.4880 c3         6 MGO      0.092199
    110 H2         22.8410   12.9250   35.2640 h1         6 MGO      0.102926
    111 O2         21.3850   13.3070   36.7020 oh         6 MGO     -0.586639
    112 HO2        20.4380   13.4870   36.6090 ho         6 MGO      0.425065
    113 C3         22.6900   15.0250   35.7150 c3         6 MGO      0.093211
    114 H3         21.9200   15.7210   36.0590 h1         6 MGO      0.064468
    115 O3         23.7030   14.8600   36.7210 oh         6 MGO     -0.592567
    116 HO3        23.3560   14.2200   37.3560 ho         6 MGO      0.421017
    117 C4         23.3280   15.5570   34.4400 c3         6 MGO      0.127621
    118 H4         24.2160   14.9630   34.2090 h1         6 MGO      0.080661
    119 C5         22.3470   15.5250   33.2540 c3         6 MGO      0.104343
    120 H5         21.5330   16.2180   33.4840 h1         6 MGO      0.068516
    121 O5         21.7620   14.1630   33.1300 os         6 MGO     -0.427383
    122 C6         22.8870   15.9550   31.8830 c3         6 MGO      0.141081
    123 H61        22.7140   17.0230   31.7350 h1         6 MGO      0.057384
    124 H62        22.3660   15.4160   31.0870 h1         6 MGO      0.057384
    125 O6         24.2960   15.7010   31.7870 oh         6 MGO     -0.593555
    126 HO6        24.7610   16.4870   32.1020 ho         6 MGO      0.422027
@<TRIPOS>BOND
    1    17    20 1
    2    14    16 1
    3    14    17 1
    4    12    14 1
    5    12   108 1
    6     8    10 1
    7     8    12 1
    8     4     6 1
    9     4     8 1
   10     3    33 1
   11     1     3 1
   12     1     4 1
   13     1    16 1
   14    38    41 1
   15    35    37 1
   16    35    38 1
   17    33    35 1
   18    29    31 1
   19    29    33 1
   20    25    27 1
   21    25    29 1
   22    24    54 1
   23    22    24 1
   24    22    25 1
   25    22    37 1
   26    59    62 1
   27    56    58 1
   28    56    59 1
   29    54    56 1
   30    50    52 1
   31    50    54 1
   32    46    48 1
   33    46    50 1
   34    45    75 1
   35    43    45 1
   36    43    46 1
   37    43    58 1
   38    80    83 1
   39    77    79 1
   40    77    80 1
   41    75    77 1
   42    71    73 1
   43    71    75 1
   44    67    69 1
   45    67    71 1
   46    66    96 1
   47    64    66 1
   48    64    67 1
   49    64    79 1
   50   101   104 1
   51    98   100 1
   52    98   101 1
   53    96    98 1
   54    92    94 1
   55    92    96 1
   56    88    90 1
   57    88    92 1
   58    87   117 1
   59    85    87 1
   60    85    88 1
   61    85   100 1
   62   122   125 1
   63   119   121 1
   64   119   122 1
   65   117   119 1
   66   113   115 1
   67   113   117 1
   68   109   111 1
   69   109   113 1
   70   106   108 1
   71   106   109 1
   72   106   121 1
   73    20    21 1
   74    17    18 1
   75    17    19 1
   76    14    15 1
   77    12    13 1
   78    10    11 1
   79     8     9 1
   80     6     7 1
   81     4     5 1
   82     1     2 1
   83    41    42 1
   84    38    39 1
   85    38    40 1
   86    35    36 1
   87    33    34 1
   88    31    32 1
   89    29    30 1
   90    27    28 1
   91    25    26 1
   92    22    23 1
   93    62    63 1
   94    59    60 1
   95    59    61 1
   96    56    57 1
   97    54    55 1
   98    52    53 1
   99    50    51 1
  100    48    49 1
  101    46    47 1
  102    43    44 1
  103    83    84 1
  104    80    81 1
  105    80    82 1
  106    77    78 1
  107    75    76 1
  108    73    74 1
  109    71    72 1
  110    69    70 1
  111    67    68 1
  112    64    65 1
  113   104   105 1
  114   101   102 1
  115   101   103 1
  116    98    99 1
  117    96    97 1
  118    94    95 1
  119    92    93 1
  120    90    91 1
  121    88    89 1
  122    85    86 1
  123   125   126 1
  124   122   123 1
  125   122   124 1
  126   119   120 1
  127   117   118 1
  128   115   116 1
  129   113   114 1
  130   111   112 1
  131   109   110 1
  132   106   107 1
@<TRIPOS>SUBSTRUCTURE
      1 MGO               1 ****               0 ****  **** 
      2 MGO              22 ****               0 ****  **** 
      3 MGO              43 ****               0 ****  **** 
      4 MGO              64 ****               0 ****  **** 
      5 MGO              85 ****               0 ****  **** 
      6 MGO             106 ****               0 ****  **** 
