@<TRIPOS>MOLECULE
Cpptraj
  126   132     1     0     0
SMALL
No Charge or Current Charge


@<TRIPOS>ATOM
      1 C1          22.7330    14.9180    33.0870 C.3        1 MGO       0.304529
      2 H1          23.7550    14.5300    33.2630 H          1 MGO       0.090782
      3 O1          22.7550    16.3400    32.7210 O.3        1 MGO      -0.453070
      4 C2          22.1100    14.1400    31.9320 C.3        1 MGO       0.092199
      5 H2          22.1060    13.0700    32.1620 H          1 MGO       0.102926
      6 O2          22.8720    14.3800    30.7370 O.3        1 MGO      -0.586639
      7 HO2         23.3920    15.1910    30.8420 H          1 MGO       0.425065
      8 C3          20.7010    14.6270    31.6650 C.3        1 MGO       0.093211
      9 H3          20.7380    15.6620    31.3160 H          1 MGO       0.064468
     10 O3          20.1510    13.7750    30.6480 O.3        1 MGO      -0.592567
     11 HO3         20.8710    13.5800    30.0330 H          1 MGO       0.421017
     12 C4          19.8420    14.5380    32.9180 C.3        1 MGO       0.127621
     13 H4          19.6520    13.4860    33.1500 H          1 MGO       0.080661
     14 C5          20.5100    15.2330    34.1180 C.3        1 MGO       0.104343
     15 H5          20.5770    16.2980    33.8850 H          1 MGO       0.068516
     16 O5          21.8960    14.7160    34.2840 O.3        1 MGO      -0.427383
     17 C6          19.7890    15.1440    35.4710 C.3        1 MGO       0.141081
     18 H61         19.1320    16.0070    35.5960 H          1 MGO       0.057384
     19 H62         20.5170    15.1540    36.2870 H          1 MGO       0.057384
     20 O6          18.9980    13.9510    35.5510 O.3        1 MGO      -0.593555
     21 HO6         18.1170    14.1540    35.2110 H          1 MGO       0.422027
     22 C1          25.1080    19.7380    33.1890 C.3        2 MGO       0.304529
     23 H1          25.9520    20.4340    33.3660 H          2 MGO       0.090782
     24 O1          23.8960    20.4600    32.7800 O.3        2 MGO      -0.453070
     25 C2          25.4960    18.7820    32.0670 C.3        2 MGO       0.092199
     26 H2          26.4140    18.2500    32.3290 H          2 MGO       0.102926
     27 O2          25.6920    19.5310    30.8570 O.3        2 MGO      -0.586639
     28 HO2         25.2490    20.3900    30.9300 H          2 MGO       0.425065
     29 C3          24.3730    17.7990    31.8010 C.3        2 MGO       0.093211
     30 H3          23.5030    18.3400    31.4200 H          2 MGO       0.064468
     31 O3          24.8570    16.8700    30.8170 O.3        2 MGO      -0.592567
     32 HO3         25.3980    17.3820    30.1980 H          2 MGO       0.421017
     33 C4          23.9940    17.0420    33.0660 C.3        2 MGO       0.127621
     34 H4          24.8040    16.3580    33.3310 H          2 MGO       0.080661
     35 C5          23.7020    17.9990    34.2370 C.3        2 MGO       0.104343
     36 H5          22.8190    18.5820    33.9690 H          2 MGO       0.068516
     37 O5          24.8390    18.9430    34.4010 O.3        2 MGO      -0.427383
     38 C6          23.3910    17.3630    35.6000 C.3        2 MGO       0.141081
     39 H61         22.3130    17.2280    35.7060 H          2 MGO       0.057384
     40 H62         23.7290    18.0190    36.4060 H          2 MGO       0.057384
     41 O6          24.0250    16.0850    35.7240 O.3        2 MGO      -0.593555
     42 HO6         23.4160    15.4140    35.3880 H          2 MGO       0.422027
     43 C1          22.1230    24.2080    33.1170 C.3        3 MGO       0.304529
     44 H1          21.9410    25.2910    33.2630 H          3 MGO       0.090782
     45 O1          20.9020    23.5090    32.6990 O.3        3 MGO      -0.453070
     46 C2          23.1680    24.0360    32.0200 C.3        3 MGO       0.092199
     47 H2          24.0840    24.5710    32.2880 H          3 MGO       0.102926
     48 O2          22.6450    24.5520    30.7850 O.3        3 MGO      -0.586639
     49 HO2         21.6780    24.5990    30.8380 H          3 MGO       0.425065
     50 C3          23.4640    22.5670    31.7970 C.3        3 MGO       0.093211
     51 H3          22.5670    22.0740    31.4100 H          3 MGO       0.064468
     52 O3          24.5290    22.4960    30.8360 O.3        3 MGO      -0.592567
     53 HO3         24.3700    23.2040    30.1980 H          3 MGO       0.421017
     54 C4          23.9020    21.8920    33.0890 C.3        3 MGO       0.127621
     55 H4          24.8940    22.2580    33.3670 H          3 MGO       0.080661
     56 C5          22.9040    22.1470    34.2330 C.3        3 MGO       0.104343
     57 H5          21.9620    21.6680    33.9580 H          3 MGO       0.068516
     58 O5          22.6510    23.6080    34.3560 O.3        3 MGO      -0.427383
     59 C6          23.2680    21.5950    35.6190 C.3        3 MGO       0.141081
     60 H61         22.8430    20.5960    35.7400 H          3 MGO       0.057384
     61 H62         22.8540    22.2360    36.4000 H          3 MGO       0.057384
     62 O6          24.6910    21.5080    35.7760 O.3        3 MGO      -0.593555
     63 HO6         24.9720    20.6370    35.4670 H          3 MGO       0.422027
     64 C1          16.7630    23.8580    32.9410 C.3        4 MGO       0.304529
     65 H1          15.7310    24.2440    33.0550 H          4 MGO       0.090782
     66 O1          16.7650    22.4400    32.5600 O.3        4 MGO      -0.453070
     67 C2          17.4570    24.6490    31.8380 C.3        4 MGO       0.092199
     68 H2          17.4460    25.7160    32.0790 H          4 MGO       0.102926
     69 O2          16.7750    24.4220    30.5940 O.3        4 MGO      -0.586639
     70 HO2         16.2500    23.6090    30.6560 H          4 MGO       0.425065
     71 C3          18.8810    24.1640    31.6570 C.3        4 MGO       0.093211
     72 H3          18.8670    23.1320    31.2950 H          4 MGO       0.064468
     73 O3          19.4960    25.0260    30.6870 O.3        4 MGO      -0.592567
     74 HO3         18.8170    25.2270    30.0280 H          4 MGO       0.421017
     75 C4          19.6570    24.2390    32.9640 C.3        4 MGO       0.127621
     76 H4          19.8320    25.2870    33.2180 H          4 MGO       0.080661
     77 C5          18.9140    23.5310    34.1110 C.3        4 MGO       0.104343
     78 H5          18.8620    22.4690    33.8620 H          4 MGO       0.068516
     79 O5          17.5210    24.0460    34.1920 O.3        4 MGO      -0.427383
     80 C6          19.5450    23.6060    35.5090 C.3        4 MGO       0.141081
     81 H61         20.1950    22.7420    35.6660 H          4 MGO       0.057384
     82 H62         18.7670    23.5880    36.2750 H          4 MGO       0.057384
     83 O6          20.3290    24.7970    35.6520 O.3        4 MGO      -0.593555
     84 HO6         21.2310    24.5970    35.3670 H          4 MGO       0.422027
     85 C1          14.3870    19.0380    32.8390 C.3        5 MGO       0.304529
     86 H1          13.5340    18.3400    32.9540 H          5 MGO       0.090782
     87 O1          15.6230    18.3210    32.5010 O.3        5 MGO      -0.453070
     88 C2          14.0720    20.0060    31.7040 C.3        5 MGO       0.092199
     89 H2          13.1390    20.5360    31.9130 H          5 MGO       0.102926
     90 O2          13.9540    19.2690    30.4760 O.3        5 MGO      -0.586639
     91 HO2         14.3920    18.4100    30.5690 H          5 MGO       0.425065
     92 C3          15.2080    20.9910    31.5220 C.3        5 MGO       0.093211
     93 H3          16.1020    20.4540    31.1910 H          5 MGO       0.064468
     94 O3          14.7900    21.9300    30.5180 O.3        5 MGO      -0.592567
     95 HO3         14.2900    21.4260    29.8620 H          5 MGO       0.421017
     96 C4          15.5050    21.7350    32.8170 C.3        5 MGO       0.127621
     97 H4          14.6800    22.4160    33.0360 H          5 MGO       0.080661
     98 C5          15.7220    20.7660    33.9940 C.3        5 MGO       0.104343
     99 H5          16.6200    20.1840    33.7780 H          5 MGO       0.068516
    100 O5          14.5770    19.8200    34.0740 O.3        5 MGO      -0.427383
    101 C6          15.9440    21.3860    35.3800 C.3        5 MGO       0.141081
    102 H61         17.0140    21.5200    35.5570 H          5 MGO       0.057384
    103 H62         15.5550    20.7230    36.1560 H          5 MGO       0.057384
    104 O6          15.3020    22.6640    35.4780 O.3        5 MGO      -0.593555
    105 HO6         15.9320    23.3370    35.1890 H          5 MGO       0.422027
    106 C1          17.3720    14.5680    32.9120 C.3        6 MGO       0.304529
    107 H1          17.5450    13.4830    33.0580 H          6 MGO       0.090782
    108 O1          18.6180    15.2700    32.5810 O.3        6 MGO      -0.453070
    109 C2          16.4000    14.7520    31.7520 C.3        6 MGO       0.092199
    110 H2          15.4690    14.2140    31.9550 H          6 MGO       0.102926
    111 O2          17.0020    14.2490    30.5480 O.3        6 MGO      -0.586639
    112 HO2         17.9640    14.2010    30.6620 H          6 MGO       0.425065
    113 C3          16.1190    16.2230    31.5260 C.3        6 MGO       0.093211
    114 H3          17.0390    16.7190    31.2020 H          6 MGO       0.064468
    115 O3          15.1170    16.3050    30.5000 O.3        6 MGO      -0.592567
    116 HO3         15.3170    15.6030    29.8650 H          6 MGO       0.421017
    117 C4          15.5980    16.8840    32.7940 C.3        6 MGO       0.127621
    118 H4          14.5900    16.5150    33.0030 H          6 MGO       0.080661
    119 C5          16.5200    16.6170    33.9970 C.3        6 MGO       0.104343
    120 H5          17.4780    17.0990    33.7890 H          6 MGO       0.068516
    121 O5          16.7650    15.1550    34.1200 O.3        6 MGO      -0.427383
    122 C6          16.0670    17.1550    35.3620 C.3        6 MGO       0.141081
    123 H61         16.4830    18.1530    35.5220 H          6 MGO       0.057384
    124 H62         16.4300    16.5060    36.1620 H          6 MGO       0.057384
    125 O6          14.6370    17.2410    35.4280 O.3        6 MGO      -0.593555
    126 HO6         14.3760    18.1160    35.1110 H          6 MGO       0.422027
@<TRIPOS>BOND
     1    17    20 1   
     2    14    16 1   
     3    14    17 1   
     4    12    14 1   
     5    12   108 1   
     6     8    10 1   
     7     8    12 1   
     8     4     6 1   
     9     4     8 1   
    10     3    33 1   
    11     1     3 1   
    12     1     4 1   
    13     1    16 1   
    14    38    41 1   
    15    35    37 1   
    16    35    38 1   
    17    33    35 1   
    18    29    31 1   
    19    29    33 1   
    20    25    27 1   
    21    25    29 1   
    22    24    54 1   
    23    22    24 1   
    24    22    25 1   
    25    22    37 1   
    26    59    62 1   
    27    56    58 1   
    28    56    59 1   
    29    54    56 1   
    30    50    52 1   
    31    50    54 1   
    32    46    48 1   
    33    46    50 1   
    34    45    75 1   
    35    43    45 1   
    36    43    46 1   
    37    43    58 1   
    38    80    83 1   
    39    77    79 1   
    40    77    80 1   
    41    75    77 1   
    42    71    73 1   
    43    71    75 1   
    44    67    69 1   
    45    67    71 1   
    46    66    96 1   
    47    64    66 1   
    48    64    67 1   
    49    64    79 1   
    50   101   104 1   
    51    98   100 1   
    52    98   101 1   
    53    96    98 1   
    54    92    94 1   
    55    92    96 1   
    56    88    90 1   
    57    88    92 1   
    58    87   117 1   
    59    85    87 1   
    60    85    88 1   
    61    85   100 1   
    62   122   125 1   
    63   119   121 1   
    64   119   122 1   
    65   117   119 1   
    66   113   115 1   
    67   113   117 1   
    68   109   111 1   
    69   109   113 1   
    70   106   108 1   
    71   106   109 1   
    72   106   121 1   
    73    20    21 1   
    74    17    18 1   
    75    17    19 1   
    76    14    15 1   
    77    12    13 1   
    78    10    11 1   
    79     8     9 1   
    80     6     7 1   
    81     4     5 1   
    82     1     2 1   
    83    41    42 1   
    84    38    39 1   
    85    38    40 1   
    86    35    36 1   
    87    33    34 1   
    88    31    32 1   
    89    29    30 1   
    90    27    28 1   
    91    25    26 1   
    92    22    23 1   
    93    62    63 1   
    94    59    60 1   
    95    59    61 1   
    96    56    57 1   
    97    54    55 1   
    98    52    53 1   
    99    50    51 1   
   100    48    49 1   
   101    46    47 1   
   102    43    44 1   
   103    83    84 1   
   104    80    81 1   
   105    80    82 1   
   106    77    78 1   
   107    75    76 1   
   108    73    74 1   
   109    71    72 1   
   110    69    70 1   
   111    67    68 1   
   112    64    65 1   
   113   104   105 1   
   114   101   102 1   
   115   101   103 1   
   116    98    99 1   
   117    96    97 1   
   118    94    95 1   
   119    92    93 1   
   120    90    91 1   
   121    88    89 1   
   122    85    86 1   
   123   125   126 1   
   124   122   123 1   
   125   122   124 1   
   126   119   120 1   
   127   117   118 1   
   128   115   116 1   
   129   113   114 1   
   130   111   112 1   
   131   109   110 1   
   132   106   107 1   
@<TRIPOS>SUBSTRUCTURE
     1 MGO         1 TEMP              0 ****  ****    0 ROOT
