@<TRIPOS>MOLECULE
Cpptraj generated mol2 file.
  147   154     7     0     0
SMALL
USER_CHARGES


@<TRIPOS>ATOM
      1 C1         21.0330   14.3770   34.8910 c3         1 MGO      0.304529
      2 H1         21.8230   13.6110   35.0210 h2         1 MGO      0.090782
      3 O1         21.6080   15.6940   34.5890 os         1 MGO     -0.453070
      4 C2         20.1440   13.9500   33.7270 c3         1 MGO      0.092199
      5 H2         19.7530   12.9460   33.9120 h1         1 MGO      0.102926
      6 O2         20.9060   13.9550   32.5080 oh         1 MGO     -0.586639
      7 HO2        21.7160   14.4790   32.6240 ho         1 MGO      0.425065
      8 C3         19.0020   14.9260   33.5380 c3         1 MGO      0.093211
      9 H3         19.3980   15.9020   33.2430 h1         1 MGO      0.064468
     10 O3         18.1630   14.3830   32.5050 oh         1 MGO     -0.592567
     11 HO3        18.7580   13.9850   31.8550 ho         1 MGO      0.421017
     12 C4         18.2010   15.0530   34.8240 c3         1 MGO      0.127621
     13 H4         17.7140   14.0980   35.0370 h1         1 MGO      0.080661
     14 C5         19.1030   15.4440   36.0060 c3         1 MGO      0.104343
     15 H5         19.5400   16.4200   35.7830 h1         1 MGO      0.068516
     16 O5         20.2110   14.4590   36.1140 os         1 MGO     -0.427383
     17 C6         18.4230   15.5830   37.3760 c3         1 MGO      0.141081
     18 H61        18.0690   16.6080   37.5080 h1         1 MGO      0.057384
     19 H62        19.1390   15.3670   38.1730 h1         1 MGO      0.057384
     20 O6         17.3030   14.6950   37.4810 oh         1 MGO     -0.593555
     21 HO6        16.5190   15.1590   37.1600 ho         1 MGO      0.422027
     22 C1         25.3470   17.5670   34.8910 c3         2 MGO      0.304529
     23 H1         26.4390   17.7060   35.0190 h2         2 MGO      0.090782
     24 O1         24.6760   18.8380   34.5880 os         2 MGO     -0.453070
     25 C2         25.1260   16.6060   33.7260 c3         2 MGO      0.092199
     26 H2         25.6680   15.6740   33.9110 h1         2 MGO      0.102926
     27 O2         25.5960   17.2040   32.5070 oh         2 MGO     -0.586639
     28 HO2        25.6920   18.1640   32.6230 ho         2 MGO      0.425065
     29 C3         23.6500   16.3220   33.5390 c3         2 MGO      0.093211
     30 H3         23.1340   17.2400   33.2430 h1         2 MGO      0.064468
     31 O3         23.5520   15.3280   32.5060 oh         2 MGO     -0.592567
     32 HO3        24.2350   15.5440   31.8540 ho         2 MGO      0.421017
     33 C4         23.0520   15.7740   34.8240 c3         2 MGO      0.127621
     34 H4         23.4960   14.7980   35.0370 h1         2 MGO      0.080661
     35 C5         23.3090   16.7230   36.0060 c3         2 MGO      0.104343
     36 H5         22.8200   17.6730   35.7830 h1         2 MGO      0.068516
     37 O5         24.7710   16.9750   36.1140 os         2 MGO     -0.427383
     38 C6         22.7780   16.2790   37.3760 c3         2 MGO      0.141081
     39 H61        21.7550   16.6400   37.5090 h1         2 MGO      0.057384
     40 H62        23.3930   16.7030   38.1730 h1         2 MGO      0.057384
     41 O6         22.7740   14.8490   37.4820 oh         2 MGO     -0.593555
     42 HO6        21.9220   14.5250   37.1600 ho         2 MGO      0.422027
     43 C1         25.5430   22.9290   34.8900 c3         3 MGO      0.304529
     44 H1         26.1140   23.8690   35.0190 h2         3 MGO      0.090782
     45 O1         24.1300   23.1960   34.5880 os         3 MGO     -0.453070
     46 C2         26.1560   22.1570   33.7250 c3         3 MGO      0.092199
     47 H2         27.2220   22.0000   33.9090 h1         3 MGO      0.102926
     48 O2         25.9810   22.8980   32.5070 oh         3 MGO     -0.586639
     49 HO2        25.2910   23.5710   32.6220 ho         3 MGO      0.425065
     50 C3         25.4580   20.8260   33.5370 c3         3 MGO      0.093211
     51 H3         24.4180   20.9950   33.2430 h1         3 MGO      0.064468
     52 O3         26.1740   20.1300   32.5040 oh         3 MGO     -0.592567
     53 HO3        26.4290   20.7990   31.8530 ho         3 MGO      0.421017
     54 C4         25.5140   20.0170   34.8240 c3         3 MGO      0.127621
     55 H4         26.5550   19.7560   35.0350 h1         3 MGO      0.080661
     56 C5         24.9330   20.8090   36.0050 c3         3 MGO      0.104343
     57 H5         23.8850   21.0190   35.7820 h1         3 MGO      0.068516
     58 O5         25.6470   22.1100   36.1130 os         3 MGO     -0.427383
     59 C6         24.9490   20.1170   37.3750 c3         3 MGO      0.141081
     60 H61        24.0290   19.5430   37.5080 h1         3 MGO      0.057384
     61 H62        25.0010   20.8620   38.1730 h1         3 MGO      0.057384
     62 O6         26.0650   19.2220   37.4810 oh         3 MGO     -0.593555
     63 HO6        25.7860   18.3550   37.1590 ho         3 MGO      0.422027
     64 C1         21.4720   26.4250   34.8920 c3         4 MGO      0.304529
     65 H1         21.0940   27.4580   35.0200 h2         4 MGO      0.090782
     66 O1         20.3840   25.4860   34.5890 os         4 MGO     -0.453070
     67 C2         22.4580   26.4230   33.7270 c3         4 MGO      0.092199
     68 H2         23.2460   27.1590   33.9120 h1         4 MGO      0.102926
     69 O2         21.7700   26.7490   32.5070 oh         4 MGO     -0.586639
     70 HO2        20.8130   26.6300   32.6240 ho         4 MGO      0.425065
     71 C3         23.0640   25.0480   33.5380 c3         4 MGO      0.093211
     72 H3         22.2840   24.3410   33.2430 h1         4 MGO      0.064468
     73 O3         24.0540   25.1730   32.5050 oh         4 MGO     -0.592567
     74 HO3        23.6920   25.7910   31.8550 ho         4 MGO      0.421017
     75 C4         23.7310   24.5860   34.8230 c3         4 MGO      0.127621
     76 H4         24.5830   25.2370   35.0360 h1         4 MGO      0.080661
     77 C5         22.7500   24.6260   36.0050 c3         4 MGO      0.104343
     78 H5         21.9320   23.9360   35.7830 h1         4 MGO      0.068516
     79 O5         22.1780   25.9950   36.1140 os         4 MGO     -0.427383
     80 C6         23.3010   24.2060   37.3750 c3         4 MGO      0.141081
     81 H61        23.1760   23.1280   37.5080 h1         4 MGO      0.057384
     82 H62        22.7500   24.7110   38.1730 h1         4 MGO      0.057384
     83 O6         24.6950   24.5200   37.4810 oh         4 MGO     -0.593555
     84 HO6        25.2010   23.7630   37.1590 ho         4 MGO      0.422027
     85 C1         16.2010   25.4220   34.8920 c3         5 MGO      0.304529
     86 H1         15.1580   25.7710   35.0210 h2         5 MGO      0.090782
     87 O1         16.2560   23.9870   34.5890 os         5 MGO     -0.453070
     88 C2         16.8170   26.1930   33.7270 c3         5 MGO      0.092199
     89 H2         16.7340   27.2670   33.9130 h1         5 MGO      0.102926
     90 O2         16.1340   25.8580   32.5090 oh         5 MGO     -0.586639
     91 HO2        15.6310   25.0350   32.6240 ho         5 MGO      0.425065
     92 C3         18.2710   25.8090   33.5390 c3         5 MGO      0.093211
     93 H3         18.3370   24.7580   33.2440 h1         5 MGO      0.064468
     94 O3         18.7900   26.6610   32.5060 oh         5 MGO     -0.592567
     95 HO3        18.0820   26.7620   31.8550 ho         5 MGO      0.421017
     96 C4         19.0470   26.0430   34.8250 c3         5 MGO      0.127621
     97 H4         19.0710   27.1140   35.0380 h1         5 MGO      0.080661
     98 C5         18.4050   25.2980   36.0060 c3         5 MGO      0.104343
     99 H5         18.4330   24.2300   35.7830 h1         5 MGO      0.068516
    100 O5         16.9780   25.7060   36.1150 os         5 MGO     -0.427383
    101 C6         19.0760   25.4670   37.3760 c3         5 MGO      0.141081
    102 H61        19.8410   24.6990   37.5080 h1         5 MGO      0.057384
    103 H62        18.3390   25.3520   38.1740 h1         5 MGO      0.057384
    104 O6         19.7000   26.7540   37.4820 oh         5 MGO     -0.593555
    105 HO6        20.6080   26.6760   37.1600 ho         5 MGO      0.422027
    106 C1         13.6990   20.6760   34.8910 c3         6 MGO      0.304529
    107 H1         12.7750   20.0780   35.0190 h2         6 MGO      0.090782
    108 O1         14.8550   19.8230   34.5880 os         6 MGO     -0.453070
    109 C2         13.4810   21.6380   33.7260 c3         6 MGO      0.092199
    110 H2         12.5890   22.2430   33.9110 h1         6 MGO      0.102926
    111 O2         13.3170   20.8950   32.5070 oh         6 MGO     -0.586639
    112 HO2        13.6460   19.9890   32.6220 ho         6 MGO      0.425065
    113 C3         14.6870   22.5340   33.5380 c3         6 MGO      0.093211
    114 H3         15.5500   21.9310   33.2430 h1         6 MGO      0.064468
    115 O3         14.3450   23.4730   32.5050 oh         6 MGO     -0.592567
    116 HO3        13.8240   22.9820   31.8540 ho         6 MGO      0.421017
    117 C4         14.9880   23.2870   34.8250 c3         6 MGO      0.127621
    118 H4         14.1650   23.9740   35.0360 h1         6 MGO      0.080661
    119 C5         15.1690   22.3210   36.0050 c3         6 MGO      0.104343
    120 H5         16.0220   21.6780   35.7830 h1         6 MGO      0.068516
    121 O5         13.9600   21.4590   36.1140 os         6 MGO     -0.427383
    122 C6         15.4540   22.9520   37.3750 c3         6 MGO      0.141081
    123 H61        16.5320   23.0700   37.5080 h1         6 MGO      0.057384
    124 H62        15.0840   22.3020   38.1730 h1         6 MGO      0.057384
    125 O6         14.8370   24.2420   37.4810 oh         6 MGO     -0.593555
    126 HO6        15.4650   24.9030   37.1610 ho         6 MGO      0.422027
    127 C1         15.8500   15.7600   34.8910 c3         7 MGO      0.304529
    128 H1         15.7430   14.6650   35.0190 h2         7 MGO      0.090782
    129 O1         17.2370   16.1330   34.5880 os         7 MGO     -0.453070
    130 C2         14.9620   16.1890   33.7250 c3         7 MGO      0.092199
    131 H2         13.9330   15.8690   33.9110 h1         7 MGO      0.102926
    132 O2         15.4410   15.5980   32.5070 oh         7 MGO     -0.586639
    133 HO2        16.3550   15.2910   32.6230 ho         7 MGO      0.425065
    134 C3         15.0130   17.6920   33.5380 c3         7 MGO      0.093211
    135 H3         16.0230   17.9900   33.2420 h1         7 MGO      0.064468
    136 O3         14.0660   18.0090   32.5040 oh         7 MGO     -0.592567
    137 HO3        14.1260   17.2960   31.8540 ho         7 MGO      0.421017
    138 C4         14.6120   18.3970   34.8240 c3         7 MGO      0.127621
    139 H4         13.5620   18.1810   35.0360 h1         7 MGO      0.080661
    140 C5         15.4790   17.9350   36.0060 c3         7 MGO      0.104343
    141 H5         16.5150   18.2020   35.7820 h1         7 MGO      0.068516
    142 O5         15.4000   16.4540   36.1130 os         7 MGO     -0.427383
    143 C6         15.1640   18.5530   37.3760 c3         7 MGO      0.141081
    144 H61        15.7440   19.4690   37.5090 h1         7 MGO      0.057384
    145 H62        15.4410   17.8580   38.1720 h1         7 MGO      0.057384
    146 O6         13.7710   18.8740   37.4810 oh         7 MGO     -0.593555
    147 HO6        13.6450   19.7760   37.1590 ho         7 MGO      0.422027
@<TRIPOS>BOND
    1    17    20 1
    2    14    16 1
    3    14    17 1
    4    12    14 1
    5    12   129 1
    6     8    10 1
    7     8    12 1
    8     4     6 1
    9     4     8 1
   10     3    33 1
   11     1     3 1
   12     1     4 1
   13     1    16 1
   14    38    41 1
   15    35    37 1
   16    35    38 1
   17    33    35 1
   18    29    31 1
   19    29    33 1
   20    25    27 1
   21    25    29 1
   22    24    54 1
   23    22    24 1
   24    22    25 1
   25    22    37 1
   26    59    62 1
   27    56    58 1
   28    56    59 1
   29    54    56 1
   30    50    52 1
   31    50    54 1
   32    46    48 1
   33    46    50 1
   34    45    75 1
   35    43    45 1
   36    43    46 1
   37    43    58 1
   38    80    83 1
   39    77    79 1
   40    77    80 1
   41    75    77 1
   42    71    73 1
   43    71    75 1
   44    67    69 1
   45    67    71 1
   46    66    96 1
   47    64    66 1
   48    64    67 1
   49    64    79 1
   50   101   104 1
   51    98   100 1
   52    98   101 1
   53    96    98 1
   54    92    94 1
   55    92    96 1
   56    88    90 1
   57    88    92 1
   58    87   117 1
   59    85    87 1
   60    85    88 1
   61    85   100 1
   62   122   125 1
   63   119   121 1
   64   119   122 1
   65   117   119 1
   66   113   115 1
   67   113   117 1
   68   109   111 1
   69   109   113 1
   70   108   138 1
   71   106   108 1
   72   106   109 1
   73   106   121 1
   74   143   146 1
   75   140   142 1
   76   140   143 1
   77   138   140 1
   78   134   136 1
   79   134   138 1
   80   130   132 1
   81   130   134 1
   82   127   129 1
   83   127   130 1
   84   127   142 1
   85    20    21 1
   86    17    18 1
   87    17    19 1
   88    14    15 1
   89    12    13 1
   90    10    11 1
   91     8     9 1
   92     6     7 1
   93     4     5 1
   94     1     2 1
   95    41    42 1
   96    38    39 1
   97    38    40 1
   98    35    36 1
   99    33    34 1
  100    31    32 1
  101    29    30 1
  102    27    28 1
  103    25    26 1
  104    22    23 1
  105    62    63 1
  106    59    60 1
  107    59    61 1
  108    56    57 1
  109    54    55 1
  110    52    53 1
  111    50    51 1
  112    48    49 1
  113    46    47 1
  114    43    44 1
  115    83    84 1
  116    80    81 1
  117    80    82 1
  118    77    78 1
  119    75    76 1
  120    73    74 1
  121    71    72 1
  122    69    70 1
  123    67    68 1
  124    64    65 1
  125   104   105 1
  126   101   102 1
  127   101   103 1
  128    98    99 1
  129    96    97 1
  130    94    95 1
  131    92    93 1
  132    90    91 1
  133    88    89 1
  134    85    86 1
  135   125   126 1
  136   122   123 1
  137   122   124 1
  138   119   120 1
  139   117   118 1
  140   115   116 1
  141   113   114 1
  142   111   112 1
  143   109   110 1
  144   106   107 1
  145   146   147 1
  146   143   144 1
  147   143   145 1
  148   140   141 1
  149   138   139 1
  150   136   137 1
  151   134   135 1
  152   132   133 1
  153   130   131 1
  154   127   128 1
@<TRIPOS>SUBSTRUCTURE
      1 MGO               1 ****               0 ****  **** 
      2 MGO              22 ****               0 ****  **** 
      3 MGO              43 ****               0 ****  **** 
      4 MGO              64 ****               0 ****  **** 
      5 MGO              85 ****               0 ****  **** 
      6 MGO             106 ****               0 ****  **** 
      7 MGO             127 ****               0 ****  **** 
