@<TRIPOS>MOLECULE
Cpptraj
   21    21     1     0     0
SMALL
No Charge or Current Charge


@<TRIPOS>ATOM
      1 C1          21.2460    20.0590    38.7730 C.2        1 MO4       0.917404
      2 O1          21.4860    18.8870    39.0120 O.co2      1 MO4      -0.842980
      3 O2          22.0800    20.9250    38.9880 O.co2      1 MO4      -0.842980
      4 C2          19.8780    20.4510    38.2150 C.3        1 MO4      -0.171137
      5 H1          19.5960    21.4480    38.5710 H          1 MO4       0.036692
      6 H2          19.1080    19.7690    38.5900 H          1 MO4       0.036692
      7 C3          19.8760    20.4340    36.6940 C.ar       1 MO4      -0.041309
      8 C4          19.5370    19.2690    36.0020 C.ar       1 MO4      -0.111024
      9 H3          19.2750    18.3660    36.5550 H          1 MO4       0.156467
     10 C5          19.5320    19.2520    34.6060 C.ar       1 MO4      -0.184539
     11 H4          19.2640    18.3350    34.0890 H          1 MO4       0.121474
     12 C6          19.8670    20.4060    33.8880 C.ar       1 MO4       0.075084
     13 O3          19.8780    20.4510    32.5050 O.3        1 MO4      -0.346974
     14 C7          19.5460    19.3100    31.6760 C.3        1 MO4       0.121674
     15 H5          19.6280    19.5970    30.6240 H          1 MO4       0.031026
     16 H6          18.5190    18.9900    31.8830 H          1 MO4       0.031026
     17 H7          20.2400    18.4900    31.8820 H          1 MO4       0.031026
     18 C8          20.2040    21.5670    34.5790 C.ar       1 MO4      -0.184539
     19 H8          20.4650    22.4650    34.0230 H          1 MO4       0.121474
     20 C9          20.2100    21.5840    35.9750 C.ar       1 MO4      -0.111024
     21 H9          20.4770    22.4990    36.5050 H          1 MO4       0.156467
@<TRIPOS>BOND
     1    18    20 ar  
     2    13    14 1   
     3    12    13 1   
     4    12    18 ar  
     5    10    12 ar  
     6     8    10 ar  
     7     7     8 ar  
     8     7    20 ar  
     9     4     7 1   
    10     1     2 1   
    11     1     3 1   
    12     1     4 1   
    13    20    21 1   
    14    18    19 1   
    15    14    15 1   
    16    14    16 1   
    17    14    17 1   
    18    10    11 1   
    19     8     9 1   
    20     4     5 1   
    21     4     6 1   
@<TRIPOS>SUBSTRUCTURE
     1 MO4         1 TEMP              0 ****  ****    0 ROOT
