@<TRIPOS>MOLECULE
Cpptraj generated mol2 file.
   22    21     1     0     0
SMALL
USER_CHARGES


@<TRIPOS>ATOM
      1 C1         19.7170   19.2040   39.5540 c          1 HEP      0.907600
      2 O1         19.1940   20.3070   39.5380 o          1 HEP     -0.853800
      3 O2         19.9710   18.6680   40.6200 o          1 HEP     -0.853800
      4 C2         20.0670   18.4660   38.2580 c3         1 HEP     -0.193400
      5 H1         19.5530   17.4990   38.2420 hc         1 HEP      0.018700
      6 H2         21.1420   18.2530   38.2420 hc         1 HEP      0.018700
      7 C3         19.6970   19.2470   36.9750 c3         1 HEP     -0.065400
      8 H3         18.6220   19.4490   36.9650 hc         1 HEP      0.043700
      9 H4         20.2200   20.2060   36.9650 hc         1 HEP      0.043700
     10 C4         20.0750   18.4490   35.7090 c3         1 HEP     -0.078400
     11 H5         19.5550   17.4880   35.7140 hc         1 HEP      0.025700
     12 H6         21.1480   18.2440   35.7140 hc         1 HEP      0.025700
     13 C5         19.7060   19.2270   34.4280 c3         1 HEP     -0.078400
     14 H7         18.6330   19.4320   34.4220 hc         1 HEP      0.035700
     15 H8         20.2270   20.1880   34.4220 hc         1 HEP      0.035700
     16 C6         20.0840   18.4300   33.1620 c3         1 HEP     -0.081400
     17 H9         19.5640   17.4680   33.1620 hc         1 HEP      0.032700
     18 H10        21.1570   18.2250   33.1620 hc         1 HEP      0.032700
     19 C7         19.7170   19.2040   31.8820 c3         1 HEP     -0.089100
     20 H11        18.6430   19.3990   31.8430 hc         1 HEP      0.024367
     21 H12        19.9920   18.6240   30.9980 hc         1 HEP      0.024367
     22 H13        20.2460   20.1590   31.8430 hc         1 HEP      0.024366
@<TRIPOS>BOND
    1    16    19 1
    2    13    16 1
    3    10    13 1
    4     7    10 1
    5     4     7 1
    6     1     2 1
    7     1     3 1
    8     1     4 1
    9    19    20 1
   10    19    21 1
   11    19    22 1
   12    16    17 1
   13    16    18 1
   14    13    14 1
   15    13    15 1
   16    10    11 1
   17    10    12 1
   18     7     8 1
   19     7     9 1
   20     4     5 1
   21     4     6 1
@<TRIPOS>SUBSTRUCTURE
      1 HEP               1 ****               0 ****  **** 
