@<TRIPOS>MOLECULE
Cpptraj
  126   132     1     0     0
SMALL
No Charge or Current Charge


@<TRIPOS>ATOM
      1 C1          21.4670    13.8000    34.8020 C.3        1 MGO       0.304529
      2 H1          21.1210    12.7550    34.6760 H          1 MGO       0.090782
      3 O1          20.3560    14.6940    35.1500 O.3        1 MGO      -0.453070
      4 C2          22.4840    13.8410    35.9380 C.3        1 MGO       0.092199
      5 H2          23.3130    13.1610    35.7220 H          1 MGO       0.102926
      6 O2          21.8380    13.4530    37.1620 O.3        1 MGO      -0.586639
      7 HO2         20.8790    13.5560    37.0700 H          1 MGO       0.425065
      8 C3          22.9970    15.2520    36.1370 C.3        1 MGO       0.093211
      9 H3          22.1760    15.8910    36.4730 H          1 MGO       0.064468
     10 O3          24.0240    15.1850    37.1390 O.3        1 MGO      -0.592567
     11 HO3         23.7320    14.5310    37.7890 H          1 MGO       0.421017
     12 C4          23.5860    15.8100    34.8480 C.3        1 MGO       0.127621
     13 H4          24.5180    15.2840    34.6220 H          1 MGO       0.080661
     14 C5          22.6040    15.6790    33.6700 C.3        1 MGO       0.104343
     15 H5          21.7390    16.3070    33.8920 H          1 MGO       0.068516
     16 O5          22.1300    14.2710    33.5720 O.3        1 MGO      -0.427383
     17 C6          23.1030    16.1240    32.2870 C.3        1 MGO       0.141081
     18 H61         22.8450    17.1720    32.1230 H          1 MGO       0.057384
     19 H62         22.6230    15.5310    31.5040 H          1 MGO       0.057384
     20 O6          24.5260    15.9830    32.1890 O.3        1 MGO      -0.593555
     21 HO6         24.9300    16.8080    32.4870 H          1 MGO       0.422027
     22 C1          16.2260    14.9900    34.7410 C.3        2 MGO       0.304529
     23 H1          15.1510    14.7660    34.5930 H          2 MGO       0.090782
     24 O1          16.4360    16.4020    35.0880 O.3        2 MGO      -0.453070
     25 C2          16.7440    14.1350    35.8920 C.3        2 MGO       0.092199
     26 H2          16.5740    13.0760    35.6770 H          2 MGO       0.102926
     27 O2          16.0600    14.5060    37.1000 O.3        2 MGO      -0.586639
     28 HO2         15.6710    15.3870    36.9960 H          2 MGO       0.425065
     29 C3          18.2190    14.3980    36.1210 C.3        2 MGO       0.093211
     30 H3          18.3540    15.4300    36.4570 H          2 MGO       0.064468
     31 O3          18.6530    13.4790    37.1380 O.3        2 MGO      -0.592567
     32 HO3         17.9260    13.4080    37.7720 H          2 MGO       0.421017
     33 C4          19.0240    14.1610    34.8510 C.3        2 MGO       0.127621
     34 H4          19.0400    13.0910    34.6310 H          2 MGO       0.080661
     35 C5          18.4440    14.9400    33.6550 C.3        2 MGO       0.104343
     36 H5          18.5520    16.0050    33.8760 H          2 MGO       0.068516
     37 O5          16.9910    14.6470    33.5290 O.3        2 MGO      -0.427383
     38 C6          19.1090    14.7240    32.2890 C.3        2 MGO       0.141081
     39 H61         19.8910    15.4700    32.1370 H          2 MGO       0.057384
     40 H62         18.3730    14.8400    31.4900 H          2 MGO       0.057384
     41 O6          19.7000    13.4210    32.2090 O.3        2 MGO      -0.593555
     42 HO6         20.6110    13.4850    32.5260 H          2 MGO       0.422027
     43 C1          14.6360    20.1240    34.6240 C.3        3 MGO       0.304529
     44 H1          13.9080    20.9410    34.4560 H          3 MGO       0.090782
     45 O1          15.9560    20.6490    34.9960 O.3        3 MGO      -0.453070
     46 C2          14.1310    19.2520    35.7680 C.3        3 MGO       0.092199
     47 H2          13.1340    18.8680    35.5330 H          3 MGO       0.102926
     48 O2          14.0820    20.0350    36.9720 O.3        3 MGO      -0.586639
     49 HO2         14.6530    20.8120    36.8760 H          3 MGO       0.425065
     50 C3          15.0900    18.1070    36.0220 C.3        3 MGO       0.093211
     51 H3          16.0440    18.5080    36.3770 H          3 MGO       0.064468
     52 O3          14.4900    17.2760    37.0300 O.3        3 MGO      -0.592567
     53 HO3         14.0520    17.8730    37.6520 H          3 MGO       0.421017
     54 C4          15.3150    17.2860    34.7600 C.3        3 MGO       0.127621
     55 H4          14.4010    16.7370    34.5220 H          3 MGO       0.080661
     56 C5          15.7250    18.1730    33.5700 C.3        3 MGO       0.104343
     57 H5          16.6960    18.6130    33.8100 H          3 MGO       0.068516
     58 O5          14.7480    19.2840    33.4170 O.3        3 MGO      -0.427383
     59 C6          15.9000    17.4840    32.2090 C.3        3 MGO       0.141081
     60 H61         16.9410    17.1790    32.0820 H          3 MGO       0.057384
     61 H62         15.6500    18.1760    31.4020 H          3 MGO       0.057384
     62 O6          15.0690    16.3190    32.1160 O.3        3 MGO      -0.593555
     63 HO6         15.5740    15.5660    32.4480 H          3 MGO       0.422027
     64 C1          18.2870    24.0680    34.5690 C.3        4 MGO       0.304529
     65 H1          18.6360    25.1060    34.4040 H          4 MGO       0.090782
     66 O1          19.3940    23.1890    34.9680 O.3        4 MGO      -0.453070
     67 C2          17.2550    24.0740    35.6910 C.3        4 MGO       0.092199
     68 H2          16.4300    24.7440    35.4350 H          4 MGO       0.102926
     69 O2          17.8830    24.5120    36.9060 O.3        4 MGO      -0.586639
     70 HO2         18.8440    24.4060    36.8320 H          4 MGO       0.425065
     71 C3          16.7390    22.6720    35.9400 C.3        4 MGO       0.093211
     72 H3          17.5550    22.0480    36.3150 H          4 MGO       0.064468
     73 O3          15.6990    22.7790    36.9250 O.3        4 MGO      -0.592567
     74 HO3         15.9820    23.4600    37.5510 H          4 MGO       0.421017
     75 C4          16.1680    22.0620    34.6680 C.3        4 MGO       0.127621
     76 H4          15.2400    22.5760    34.4080 H          4 MGO       0.080661
     77 C5          17.1660    22.1440    33.4990 C.3        4 MGO       0.104343
     78 H5          18.0270    21.5260    33.7590 H          4 MGO       0.068516
     79 O5          17.6420    23.5450    33.3500 O.3        4 MGO      -0.427383
     80 C6          16.6860    21.6430    32.1290 C.3        4 MGO       0.141081
     81 H61         16.9450    20.5880    32.0110 H          4 MGO       0.057384
     82 H62         17.1760    22.2020    31.3300 H          4 MGO       0.057384
     83 O6          15.2650    21.7790    32.0050 O.3        4 MGO      -0.593555
     84 HO6         14.8570    20.9660    32.3320 H          4 MGO       0.422027
     85 C1          23.5290    22.8780    34.6290 C.3        5 MGO       0.304529
     86 H1          24.6060    23.0950    34.4860 H          5 MGO       0.090782
     87 O1          23.3120    21.4820    35.0300 O.3        5 MGO      -0.453070
     88 C2          22.9950    23.7800    35.7360 C.3        5 MGO       0.092199
     89 H2          23.1680    24.8290    35.4800 H          5 MGO       0.102926
     90 O2          23.6630    23.4590    36.9670 O.3        5 MGO      -0.586639
     91 HO2         24.0530    22.5750    36.9040 H          5 MGO       0.425065
     92 C3          21.5180    23.5270    35.9550 C.3        5 MGO       0.093211
     93 H3          21.3780    22.5090    36.3320 H          5 MGO       0.064468
     94 O3          21.0700    24.4860    36.9270 O.3        5 MGO      -0.592567
     95 HO3         21.7870    24.5840    37.5670 H          5 MGO       0.421017
     96 C4          20.7300    23.7110    34.6650 C.3        5 MGO       0.127621
     97 H4          20.7180    24.7710    34.4010 H          5 MGO       0.080661
     98 C5          21.3260    22.8820    33.5120 C.3        5 MGO       0.104343
     99 H5          21.2160    21.8280    33.7740 H          5 MGO       0.068516
    100 O5          22.7800    23.1710    33.3930 O.3        5 MGO      -0.427383
    101 C6          20.6800    23.0430    32.1280 C.3        5 MGO       0.141081
    102 H61         19.8990    22.2890    31.9970 H          5 MGO       0.057384
    103 H62         21.4270    22.8930    31.3440 H          5 MGO       0.057384
    104 O6          20.0900    24.3410    31.9860 O.3        5 MGO      -0.593555
    105 HO6         19.1760    24.2880    32.2930 H          5 MGO       0.422027
    106 C1          25.1180    17.7440    34.7460 C.3        6 MGO       0.304529
    107 H1          25.8490    16.9200    34.6210 H          6 MGO       0.090782
    108 O1          23.7940    17.2340    35.1220 O.3        6 MGO      -0.453070
    109 C2          25.6080    18.6630    35.8590 C.3        6 MGO       0.092199
    110 H2          26.6090    19.0370    35.6220 H          6 MGO       0.102926
    111 O2          25.6400    17.9300    37.0950 O.3        6 MGO      -0.586639
    112 HO2         25.0700    17.1500    37.0240 H          6 MGO       0.425065
    113 C3          24.6470    19.8170    36.0530 C.3        6 MGO       0.093211
    114 H3          23.6880    19.4300    36.4110 H          6 MGO       0.064468
    115 O3          25.2330    20.6890    37.0330 O.3        6 MGO      -0.592567
    116 HO3         25.6620    20.1190    37.6860 H          6 MGO       0.421017
    117 C4          24.4390    20.5840    34.7550 C.3        6 MGO       0.127621
    118 H4          25.3560    21.1240    34.5070 H          6 MGO       0.080661
    119 C5          24.0440    19.6500    33.5970 C.3        6 MGO       0.104343
    120 H5          23.0710    19.2190    33.8410 H          6 MGO       0.068516
    121 O5          25.0240    18.5340    33.5040 O.3        6 MGO      -0.427383
    122 C6          23.8880    20.2820    32.2070 C.3        6 MGO       0.141081
    123 H61         22.8490    20.5810    32.0530 H          6 MGO       0.057384
    124 H62         24.1490    19.5570    31.4320 H          6 MGO       0.057384
    125 O6          24.7210    21.4420    32.0770 O.3        6 MGO      -0.593555
    126 HO6         24.2120    22.2090    32.3700 H          6 MGO       0.422027
@<TRIPOS>BOND
     1    17    20 1   
     2    14    16 1   
     3    14    17 1   
     4    12    14 1   
     5    12   108 1   
     6     8    10 1   
     7     8    12 1   
     8     4     6 1   
     9     4     8 1   
    10     3    33 1   
    11     1     3 1   
    12     1     4 1   
    13     1    16 1   
    14    38    41 1   
    15    35    37 1   
    16    35    38 1   
    17    33    35 1   
    18    29    31 1   
    19    29    33 1   
    20    25    27 1   
    21    25    29 1   
    22    24    54 1   
    23    22    24 1   
    24    22    25 1   
    25    22    37 1   
    26    59    62 1   
    27    56    58 1   
    28    56    59 1   
    29    54    56 1   
    30    50    52 1   
    31    50    54 1   
    32    46    48 1   
    33    46    50 1   
    34    45    75 1   
    35    43    45 1   
    36    43    46 1   
    37    43    58 1   
    38    80    83 1   
    39    77    79 1   
    40    77    80 1   
    41    75    77 1   
    42    71    73 1   
    43    71    75 1   
    44    67    69 1   
    45    67    71 1   
    46    66    96 1   
    47    64    66 1   
    48    64    67 1   
    49    64    79 1   
    50   101   104 1   
    51    98   100 1   
    52    98   101 1   
    53    96    98 1   
    54    92    94 1   
    55    92    96 1   
    56    88    90 1   
    57    88    92 1   
    58    87   117 1   
    59    85    87 1   
    60    85    88 1   
    61    85   100 1   
    62   122   125 1   
    63   119   121 1   
    64   119   122 1   
    65   117   119 1   
    66   113   115 1   
    67   113   117 1   
    68   109   111 1   
    69   109   113 1   
    70   106   108 1   
    71   106   109 1   
    72   106   121 1   
    73    20    21 1   
    74    17    18 1   
    75    17    19 1   
    76    14    15 1   
    77    12    13 1   
    78    10    11 1   
    79     8     9 1   
    80     6     7 1   
    81     4     5 1   
    82     1     2 1   
    83    41    42 1   
    84    38    39 1   
    85    38    40 1   
    86    35    36 1   
    87    33    34 1   
    88    31    32 1   
    89    29    30 1   
    90    27    28 1   
    91    25    26 1   
    92    22    23 1   
    93    62    63 1   
    94    59    60 1   
    95    59    61 1   
    96    56    57 1   
    97    54    55 1   
    98    52    53 1   
    99    50    51 1   
   100    48    49 1   
   101    46    47 1   
   102    43    44 1   
   103    83    84 1   
   104    80    81 1   
   105    80    82 1   
   106    77    78 1   
   107    75    76 1   
   108    73    74 1   
   109    71    72 1   
   110    69    70 1   
   111    67    68 1   
   112    64    65 1   
   113   104   105 1   
   114   101   102 1   
   115   101   103 1   
   116    98    99 1   
   117    96    97 1   
   118    94    95 1   
   119    92    93 1   
   120    90    91 1   
   121    88    89 1   
   122    85    86 1   
   123   125   126 1   
   124   122   123 1   
   125   122   124 1   
   126   119   120 1   
   127   117   118 1   
   128   115   116 1   
   129   113   114 1   
   130   111   112 1   
   131   109   110 1   
   132   106   107 1   
@<TRIPOS>SUBSTRUCTURE
     1 MGO         1 TEMP              0 ****  ****    0 ROOT
