@<TRIPOS>MOLECULE
Cpptraj
   22    22     1     0     0
SMALL
No Charge or Current Charge


@<TRIPOS>ATOM
      1 C1          19.7980    19.8840    33.1630 C.3        1 M4C      -0.089059
      2 H2          18.7150    19.9660    33.0470 H          1 M4C       0.033716
      3 H3          20.2250    20.7340    32.6280 H          1 M4C       0.033716
      4 H4          20.1830    18.9660    32.7130 H          1 M4C       0.033716
      5 C2          20.1700    19.8540    34.7040 C.3        1 M4C      -0.065670
      6 H5          21.2610    19.8210    34.7350 H          1 M4C       0.043720
      7 C3          19.8200    21.1900    35.3640 C.3        1 M4C      -0.072366
      8 H6          20.3770    21.9240    34.7800 H          1 M4C       0.045971
      9 H7          18.7430    21.3660    35.3300 H          1 M4C       0.045971
     10 C4          20.3210    21.1460    36.9070 C.3        1 M4C      -0.090358
     11 H8          19.9320    22.0340    37.4100 H          1 M4C       0.045971
     12 H9          21.4130    21.1490    36.9380 H          1 M4C       0.045971
     13 C5          19.7980    19.8840    37.5870 C.3        1 M4C       0.142166
     14 H10         20.1010    19.9150    38.6360 H          1 M4C       0.027713
     15 C6          20.1310    18.5700    36.8660 C.3        1 M4C      -0.090358
     16 H11         19.6760    17.6940    37.3310 H          1 M4C       0.045971
     17 H12         21.1920    18.3850    36.6820 H          1 M4C       0.045971
     18 C7          19.5960    18.6090    35.4870 C.3        1 M4C      -0.072366
     19 H13         18.5170    18.5420    35.3330 H          1 M4C       0.045971
     20 H14         19.9560    17.7100    34.9820 H          1 M4C       0.045971
     21 O1          18.3660    20.0270    37.7770 O.3        1 M4C      -0.599522
     22 H1          18.0910    19.2340    38.2700 H          1 M4C       0.397184
@<TRIPOS>BOND
     1    15    18 1   
     2    13    15 1   
     3    13    21 1   
     4    10    13 1   
     5     7    10 1   
     6     5     7 1   
     7     5    18 1   
     8     1     5 1   
     9    21    22 1   
    10    18    19 1   
    11    18    20 1   
    12    15    16 1   
    13    15    17 1   
    14    13    14 1   
    15    10    11 1   
    16    10    12 1   
    17     7     8 1   
    18     7     9 1   
    19     5     6 1   
    20     1     2 1   
    21     1     3 1   
    22     1     4 1   
@<TRIPOS>SUBSTRUCTURE
     1 M4C         1 TEMP              0 ****  ****    0 ROOT
