@<TRIPOS>MOLECULE
Cpptraj generated mol2 file.
  147   154     7     0     0
SMALL
USER_CHARGES


@<TRIPOS>ATOM
      1 C1         16.1950   14.9180   34.8410 c3         1 MGO      0.304529
      2 H1         15.1510   14.5780   34.6910 h2         1 MGO      0.090782
      3 O1         16.2540   16.3510   35.1550 os         1 MGO     -0.453070
      4 C2         16.7830   14.1350   36.0110 c3         1 MGO      0.092199
      5 H2         16.6960   13.0630   35.8180 h1         1 MGO      0.102926
      6 O2         16.0800   14.4660   37.2200 oh         1 MGO     -0.586639
      7 HO2        15.5860   15.2940   37.1010 ho         1 MGO      0.425065
      8 C3         18.2360   14.5050   36.2280 c3         1 MGO      0.093211
      9 H3         18.3050   15.5540   36.5320 h1         1 MGO      0.064468
     10 O3         18.7300   13.6420   37.2660 oh         1 MGO     -0.592567
     11 HO3        18.0090   13.5420   37.9020 ho         1 MGO      0.421017
     12 C4         19.0340   14.2740   34.9550 c3         1 MGO      0.127621
     13 H4         19.0530   13.2050   34.7360 h1         1 MGO      0.080661
     14 C5         18.4180   15.0320   33.7680 c3         1 MGO      0.104343
     15 H5         18.4510   16.0990   33.9980 h1         1 MGO      0.068516
     16 O5         16.9910   14.6370   33.6300 os         1 MGO     -0.427383
     17 C6         19.1130   14.8660   32.4080 c3         1 MGO      0.141081
     18 H61        19.8860   15.6310   32.2960 h1         1 MGO      0.057384
     19 H62        18.3910   14.9930   31.6000 h1         1 MGO      0.057384
     20 O6         19.7300   13.5760   32.3050 oh         1 MGO     -0.593555
     21 HO6        20.6310   13.6440   32.6430 ho         1 MGO      0.422027
     22 C1         13.7290   19.6830   34.8300 c3         2 MGO      0.304529
     23 H1         12.8130   20.2900   34.6900 h2         2 MGO      0.090782
     24 O1         14.8870   20.5260   35.1600 os         2 MGO     -0.453070
     25 C2         13.4830   18.7150   35.9840 c3         2 MGO      0.092199
     26 H2         12.5890   18.1180   35.7790 h1         2 MGO      0.102926
     27 O2         13.3030   19.4510   37.2040 oh         2 MGO     -0.586639
     28 HO2        13.6420   20.3560   37.1010 ho         2 MGO      0.425065
     29 C3         14.6790   17.8080   36.1870 c3         2 MGO      0.093211
     30 H3         15.5420   18.4020   36.5010 h1         2 MGO      0.064468
     31 O3         14.3100   16.8650   37.2070 oh         2 MGO     -0.592567
     32 HO3        13.7820   17.3560   37.8530 ho         2 MGO      0.421017
     33 C4         14.9970   17.0610   34.9010 c3         2 MGO      0.127621
     34 H4         14.1730   16.3830   34.6700 h1         2 MGO      0.080661
     35 C5         15.2070   18.0340   33.7300 c3         2 MGO      0.104343
     36 H5         16.0610   18.6690   33.9730 h1         2 MGO      0.068516
     37 O5         14.0080   18.9070   33.6070 os         2 MGO     -0.427383
     38 C6         15.5130   17.4110   32.3610 c3         2 MGO      0.141081
     39 H61        16.5920   17.2860   32.2470 h1         2 MGO      0.057384
     40 H62        15.1620   18.0680   31.5620 h1         2 MGO      0.057384
     41 O6         14.8870   16.1270   32.2350 oh         2 MGO     -0.593555
     42 HO6        15.5030   15.4580   32.5630 ho         2 MGO      0.422027
     43 C1         15.9170   24.5820   34.9040 c3         3 MGO      0.304529
     44 H1         15.8210   25.6780   34.7800 h2         3 MGO      0.090782
     45 O1         17.2970   24.1960   35.2280 os         3 MGO     -0.453070
     46 C2         15.0060   24.1520   36.0480 c3         3 MGO      0.092199
     47 H2         13.9830   24.4810   35.8480 h1         3 MGO      0.102926
     48 O2         15.4670   24.7300   37.2800 oh         3 MGO     -0.586639
     49 HO2        16.3860   25.0320   37.1820 ho         3 MGO      0.425065
     50 C3         15.0420   22.6470   36.2270 c3         3 MGO      0.093211
     51 H3         16.0440   22.3390   36.5380 h1         3 MGO      0.064468
     52 O3         14.0740   22.3310   37.2410 oh         3 MGO     -0.592567
     53 HO3        14.1290   23.0400   37.8980 ho         3 MGO      0.421017
     54 C4         14.6590   21.9550   34.9290 c3         3 MGO      0.127621
     55 H4         13.6140   22.1810   34.7000 h1         3 MGO      0.080661
     56 C5         15.5500   22.4180   33.7670 c3         3 MGO      0.104343
     57 H5         16.5790   22.1420   34.0060 h1         3 MGO      0.068516
     58 O5         15.4850   23.9000   33.6680 os         3 MGO     -0.427383
     59 C6         15.2560   21.8120   32.3870 c3         3 MGO      0.141081
     60 H61        15.8300   20.8930   32.2590 h1         3 MGO      0.057384
     61 H62        15.5520   22.5100   31.5990 h1         3 MGO      0.057384
     62 O6         13.8620   21.5020   32.2540 oh         3 MGO     -0.593555
     63 HO6        13.7240   20.5980   32.5670 ho         3 MGO      0.422027
     64 C1         21.1120   25.9250   35.0040 c3         4 MGO      0.304529
     65 H1         21.9090   26.6860   34.8960 h2         4 MGO      0.090782
     66 O1         21.6700   24.6000   35.3080 os         4 MGO     -0.453070
     67 C2         20.2050   26.3500   36.1560 c3         4 MGO      0.092199
     68 H2         19.8260   27.3590   35.9710 h1         4 MGO      0.102926
     69 O2         20.9450   26.3300   37.3880 oh         4 MGO     -0.586639
     70 HO2        21.7520   25.8010   37.2830 ho         4 MGO      0.425065
     71 C3         19.0520   25.3820   36.3170 c3         4 MGO      0.093211
     72 H3         19.4350   24.4000   36.6130 h1         4 MGO      0.064468
     73 O3         18.2000   25.9240   37.3380 oh         4 MGO     -0.592567
     74 HO3        18.7850   26.3130   38.0030 ho         4 MGO      0.421017
     75 C4         18.2730   25.2700   35.0170 c3         4 MGO      0.127621
     76 H4         17.7990   26.2300   34.8020 h1         4 MGO      0.080661
     77 C5         19.1920   24.8800   33.8490 c3         4 MGO      0.104343
     78 H5         19.6190   23.8990   34.0730 h1         4 MGO      0.068516
     79 O5         20.3110   25.8580   33.7670 os         4 MGO     -0.427383
     80 C6         18.5360   24.7560   32.4660 c3         4 MGO      0.141081
     81 H61        18.1760   23.7340   32.3200 h1         4 MGO      0.057384
     82 H62        19.2680   24.9720   31.6830 h1         4 MGO      0.057384
     83 O6         17.4260   25.6530   32.3470 oh         4 MGO     -0.593555
     84 HO6        16.6320   25.1950   32.6510 ho         4 MGO      0.422027
     85 C1         25.4000   22.7010   35.0600 c3         5 MGO      0.304529
     86 H1         26.4920   22.5530   34.9480 h2         5 MGO      0.090782
     87 O1         24.7120   21.4330   35.3420 os         5 MGO     -0.453070
     88 C2         25.1660   23.6550   36.2260 c3         5 MGO      0.092199
     89 H2         25.7180   24.5840   36.0570 h1         5 MGO      0.102926
     90 O2         25.6100   23.0450   37.4490 oh         5 MGO     -0.586639
     91 HO2        25.7000   22.0860   37.3290 ho         5 MGO      0.425065
     92 C3         23.6890   23.9510   36.3900 c3         5 MGO      0.093211
     93 H3         23.1600   23.0340   36.6700 h1         5 MGO      0.064468
     94 O3         23.5800   24.9370   37.4290 oh         5 MGO     -0.592567
     95 HO3        24.2480   24.7110   38.0890 ho         5 MGO      0.421017
     96 C4         23.1190   24.5110   35.0980 c3         5 MGO      0.127621
     97 H4         23.5730   25.4850   34.9000 h1         5 MGO      0.080661
     98 C5         23.3880   23.5680   33.9150 c3         5 MGO      0.104343
     99 H5         22.8880   22.6200   34.1230 h1         5 MGO      0.068516
    100 O5         24.8500   23.3060   33.8310 os         5 MGO     -0.427383
    101 C6         22.8840   24.0250   32.5380 c3         5 MGO      0.141081
    102 H61        21.8610   23.6730   32.3850 h1         5 MGO      0.057384
    103 H62        23.5100   23.6010   31.7490 h1         5 MGO      0.057384
    104 O6         22.8940   25.4560   32.4420 oh         5 MGO     -0.593555
    105 HO6        22.0400   25.7840   32.7520 ho         5 MGO      0.422027
    106 C1         25.5530   17.3370   35.0270 c3         6 MGO      0.304529
    107 H1         26.1210   16.3930   34.9030 h2         6 MGO      0.090782
    108 O1         24.1340   17.0790   35.3020 os         6 MGO     -0.453070
    109 C2         26.1530   18.0970   36.2070 c3         6 MGO      0.092199
    110 H2         27.2230   18.2470   36.0440 h1         6 MGO      0.102926
    111 O2         25.9500   17.3490   37.4180 oh         6 MGO     -0.586639
    112 HO2        25.2570   16.6820   37.2860 ho         6 MGO      0.425065
    113 C3         25.4620   19.4320   36.3930 c3         6 MGO      0.093211
    114 H3         24.4160   19.2680   36.6680 h1         6 MGO      0.064468
    115 O3         26.1640   20.1160   37.4430 oh         6 MGO     -0.592567
    116 HO3        26.4020   19.4410   38.0940 ho         6 MGO      0.421017
    117 C4         25.5460   20.2490   35.1130 c3         6 MGO      0.127621
    118 H4         26.5910   20.5030   34.9210 h1         6 MGO      0.080661
    119 C5         24.9800   19.4690   33.9170 c3         6 MGO      0.104343
    120 H5         23.9270   19.2660   34.1180 h1         6 MGO      0.068516
    121 O5         25.6860   18.1630   33.8120 os         6 MGO     -0.427383
    122 C6         25.0260   20.1710   32.5510 c3         6 MGO      0.141081
    123 H61        24.1130   20.7520   32.4060 h1         6 MGO      0.057384
    124 H62        25.0870   19.4300   31.7500 h1         6 MGO      0.057384
    125 O6         26.1510   21.0570   32.4720 oh         6 MGO     -0.593555
    126 HO6        25.8730   21.9240   32.7940 ho         6 MGO      0.422027
    127 C1         21.4560   13.8740   34.9300 c3         7 MGO      0.304529
    128 H1         21.0720   12.8450   34.7870 h2         7 MGO      0.090782
    129 O1         20.3710   14.8180   35.2190 os         7 MGO     -0.453070
    130 C2         22.4220   13.8590   36.1120 c3         7 MGO      0.092199
    131 H2         23.2070   13.1190   35.9370 h1         7 MGO      0.102926
    132 O2         21.7100   13.5320   37.3160 oh         7 MGO     -0.586639
    133 HO2        20.7560   13.6600   37.1840 ho         7 MGO      0.425065
    134 C3         23.0350   15.2290   36.3210 c3         7 MGO      0.093211
    135 H3         22.2550   15.9400   36.6070 h1         7 MGO      0.064468
    136 O3         24.0050   15.0890   37.3720 oh         7 MGO     -0.592567
    137 HO3        23.6250   14.4710   38.0110 ho         7 MGO      0.421017
    138 C4         23.7290   15.6940   35.0500 c3         7 MGO      0.127621
    139 H4         24.5800   15.0380   34.8490 h1         7 MGO      0.080661
    140 C5         22.7680   15.6690   33.8510 c3         7 MGO      0.104343
    141 H5         21.9520   16.3640   34.0640 h1         7 MGO      0.068516
    142 O5         22.1890   14.3070   33.7240 os         7 MGO     -0.427383
    143 C6         23.3470   16.0950   32.4940 c3         7 MGO      0.141081
    144 H61        23.2330   17.1730   32.3660 h1         7 MGO      0.057384
    145 H62        22.8070   15.5990   31.6830 h1         7 MGO      0.057384
    146 O6         24.7410   15.7690   32.4110 oh         7 MGO     -0.593555
    147 HO6        25.2460   16.5200   32.7480 ho         7 MGO      0.422027
@<TRIPOS>BOND
    1    17    20 1
    2    14    16 1
    3    14    17 1
    4    12    14 1
    5    12   129 1
    6     8    10 1
    7     8    12 1
    8     4     6 1
    9     4     8 1
   10     3    33 1
   11     1     3 1
   12     1     4 1
   13     1    16 1
   14    38    41 1
   15    35    37 1
   16    35    38 1
   17    33    35 1
   18    29    31 1
   19    29    33 1
   20    25    27 1
   21    25    29 1
   22    24    54 1
   23    22    24 1
   24    22    25 1
   25    22    37 1
   26    59    62 1
   27    56    58 1
   28    56    59 1
   29    54    56 1
   30    50    52 1
   31    50    54 1
   32    46    48 1
   33    46    50 1
   34    45    75 1
   35    43    45 1
   36    43    46 1
   37    43    58 1
   38    80    83 1
   39    77    79 1
   40    77    80 1
   41    75    77 1
   42    71    73 1
   43    71    75 1
   44    67    69 1
   45    67    71 1
   46    66    96 1
   47    64    66 1
   48    64    67 1
   49    64    79 1
   50   101   104 1
   51    98   100 1
   52    98   101 1
   53    96    98 1
   54    92    94 1
   55    92    96 1
   56    88    90 1
   57    88    92 1
   58    87   117 1
   59    85    87 1
   60    85    88 1
   61    85   100 1
   62   122   125 1
   63   119   121 1
   64   119   122 1
   65   117   119 1
   66   113   115 1
   67   113   117 1
   68   109   111 1
   69   109   113 1
   70   108   138 1
   71   106   108 1
   72   106   109 1
   73   106   121 1
   74   143   146 1
   75   140   142 1
   76   140   143 1
   77   138   140 1
   78   134   136 1
   79   134   138 1
   80   130   132 1
   81   130   134 1
   82   127   129 1
   83   127   130 1
   84   127   142 1
   85    20    21 1
   86    17    18 1
   87    17    19 1
   88    14    15 1
   89    12    13 1
   90    10    11 1
   91     8     9 1
   92     6     7 1
   93     4     5 1
   94     1     2 1
   95    41    42 1
   96    38    39 1
   97    38    40 1
   98    35    36 1
   99    33    34 1
  100    31    32 1
  101    29    30 1
  102    27    28 1
  103    25    26 1
  104    22    23 1
  105    62    63 1
  106    59    60 1
  107    59    61 1
  108    56    57 1
  109    54    55 1
  110    52    53 1
  111    50    51 1
  112    48    49 1
  113    46    47 1
  114    43    44 1
  115    83    84 1
  116    80    81 1
  117    80    82 1
  118    77    78 1
  119    75    76 1
  120    73    74 1
  121    71    72 1
  122    69    70 1
  123    67    68 1
  124    64    65 1
  125   104   105 1
  126   101   102 1
  127   101   103 1
  128    98    99 1
  129    96    97 1
  130    94    95 1
  131    92    93 1
  132    90    91 1
  133    88    89 1
  134    85    86 1
  135   125   126 1
  136   122   123 1
  137   122   124 1
  138   119   120 1
  139   117   118 1
  140   115   116 1
  141   113   114 1
  142   111   112 1
  143   109   110 1
  144   106   107 1
  145   146   147 1
  146   143   144 1
  147   143   145 1
  148   140   141 1
  149   138   139 1
  150   136   137 1
  151   134   135 1
  152   132   133 1
  153   130   131 1
  154   127   128 1
@<TRIPOS>SUBSTRUCTURE
      1 MGO               1 ****               0 ****  **** 
      2 MGO              22 ****               0 ****  **** 
      3 MGO              43 ****               0 ****  **** 
      4 MGO              64 ****               0 ****  **** 
      5 MGO              85 ****               0 ****  **** 
      6 MGO             106 ****               0 ****  **** 
      7 MGO             127 ****               0 ****  **** 
