@<TRIPOS>MOLECULE
Cpptraj generated mol2 file.
  126   132     6     0     0
SMALL
USER_CHARGES


@<TRIPOS>ATOM
      1 C1         16.4460   15.0130   32.6290 c3         1 MGO      0.304529
      2 H1         16.4970   13.9160   32.7740 h2         1 MGO      0.090782
      3 O1         17.7530   15.5660   32.2550 os         1 MGO     -0.453070
      4 C2         15.4640   15.3080   31.4990 c3         1 MGO      0.092199
      5 H2         14.4850   14.8820   31.7350 h1         1 MGO      0.102926
      6 O2         15.9650   14.7370   30.2790 oh         1 MGO     -0.586639
      7 HO2        16.9180   14.5780   30.3630 ho         1 MGO      0.425065
      8 C3         15.3500   16.8010   31.2750 c3         1 MGO      0.093211
      9 H3         16.3090   17.1870   30.9200 h1         1 MGO      0.064468
     10 O3         14.3320   16.9970   30.2810 oh         1 MGO     -0.592567
     11 HO3        14.4270   16.2760   29.6430 ho         1 MGO      0.421017
     12 C4         14.9500   17.5200   32.5560 c3         1 MGO      0.127621
     13 H4         13.9140   17.2720   32.7990 h1         1 MGO      0.080661
     14 C5         15.8740   17.1490   33.7300 c3         1 MGO      0.104343
     15 H5         16.8740   17.5160   33.4880 h1         1 MGO      0.068516
     16 O5         15.9510   15.6680   33.8530 os         1 MGO     -0.427383
     17 C6         15.5310   17.7380   35.1060 c3         1 MGO      0.141081
     18 H61        16.0650   18.6800   35.2470 h1         1 MGO      0.057384
     19 H62        15.8420   17.0520   35.8980 h1         1 MGO      0.057384
     20 O6         14.1240   17.9900   35.2170 oh         1 MGO     -0.593555
     21 HO6        13.9560   18.8880   34.9050 ho         1 MGO      0.422027
     22 C1         21.8140   14.7380   32.6290 c3         2 MGO      0.304529
     23 H1         22.7890   14.2340   32.7740 h2         2 MGO      0.090782
     24 O1         21.9890   16.1470   32.2550 os         2 MGO     -0.453070
     25 C2         21.0690   14.0350   31.5000 c3         2 MGO      0.092199
     26 H2         20.9480   12.9740   31.7350 h1         2 MGO      0.102926
     27 O2         21.8140   14.1840   30.2800 oh         2 MGO     -0.586639
     28 HO2        22.4280   14.9290   30.3630 ho         2 MGO      0.425065
     29 C3         19.7180   14.6840   31.2760 c3         2 MGO      0.093211
     30 H3         19.8640   15.7070   30.9200 h1         2 MGO      0.064468
     31 O3         19.0380   13.8990   30.2810 oh         2 MGO     -0.592567
     32 HO3        19.7120   13.6220   29.6430 ho         2 MGO      0.421017
     33 C4         18.8940   14.6970   32.5560 c3         2 MGO      0.127621
     34 H4         18.5920   13.6750   32.7980 h1         2 MGO      0.080661
     35 C5         19.6780   15.3110   33.7310 c3         2 MGO      0.104343
     36 H5         19.8600   16.3600   33.4890 h1         2 MGO      0.068516
     37 O5         20.9990   14.6370   33.8530 os         2 MGO     -0.427383
     38 C6         18.9960   15.3080   35.1060 c3         2 MGO      0.141081
     39 H61        18.4470   16.2410   35.2480 h1         2 MGO      0.057384
     40 H62        19.7460   15.2340   35.8980 h1         2 MGO      0.057384
     41 O6         18.0750   14.2150   35.2170 oh         2 MGO     -0.593555
     42 HO6        17.2120   14.5190   34.9040 ho         2 MGO      0.422027
     43 C1         24.7360   19.2500   32.6300 c3         3 MGO      0.304529
     44 H1         25.6600   19.8420   32.7760 h2         3 MGO      0.090782
     45 O1         23.6040   20.1060   32.2560 os         3 MGO     -0.453070
     46 C2         24.9720   18.2530   31.5010 c3         3 MGO      0.092199
     47 H2         25.8300   17.6170   31.7360 h1         3 MGO      0.102926
     48 O2         25.2170   18.9710   30.2810 oh         3 MGO     -0.586639
     49 HO2        24.8790   19.8760   30.3640 ho         3 MGO      0.425065
     50 C3         23.7360   17.4060   31.2760 c3         3 MGO      0.093211
     51 H3         22.9220   18.0440   30.9200 h1         3 MGO      0.064468
     52 O3         24.0760   16.4260   30.2820 oh         3 MGO     -0.592567
     53 HO3        24.6520   16.8700   29.6450 ho         3 MGO      0.421017
     54 C4         23.3120   16.7010   32.5570 c3         3 MGO      0.127621
     55 H4         24.0460   15.9280   32.8000 h1         3 MGO      0.080661
     56 C5         23.1720   17.6870   33.7310 c3         3 MGO      0.104343
     57 H5         22.3540   18.3690   33.4890 h1         3 MGO      0.068516
     58 O5         24.4150   18.4930   33.8540 os         3 MGO     -0.427383
     59 C6         22.8330   17.0950   35.1070 c3         3 MGO      0.141081
     60 H61        21.7500   17.0870   35.2480 h1         3 MGO      0.057384
     61 H62        23.2710   17.7080   35.8980 h1         3 MGO      0.057384
     62 O6         23.3190   15.7510   35.2180 oh         3 MGO     -0.593555
     63 HO6        22.6240   15.1560   34.9050 ho         3 MGO      0.422027
     64 C1         22.2910   24.0360   32.6290 c3         4 MGO      0.304529
     65 H1         22.2390   25.1330   32.7740 h2         4 MGO      0.090782
     66 O1         20.9830   23.4830   32.2550 os         4 MGO     -0.453070
     67 C2         23.2730   23.7420   31.5000 c3         4 MGO      0.092199
     68 H2         24.2520   24.1680   31.7360 h1         4 MGO      0.102926
     69 O2         22.7720   24.3130   30.2800 oh         4 MGO     -0.586639
     70 HO2        21.8190   24.4720   30.3630 ho         4 MGO      0.425065
     71 C3         23.3870   22.2480   31.2760 c3         4 MGO      0.093211
     72 H3         22.4270   21.8630   30.9200 h1         4 MGO      0.064468
     73 O3         24.4050   22.0520   30.2820 oh         4 MGO     -0.592567
     74 HO3        24.3090   22.7730   29.6440 ho         4 MGO      0.421017
     75 C4         23.7860   21.5290   32.5560 c3         4 MGO      0.127621
     76 H4         24.8220   21.7780   32.8000 h1         4 MGO      0.080661
     77 C5         22.8620   21.9000   33.7300 c3         4 MGO      0.104343
     78 H5         21.8620   21.5340   33.4890 h1         4 MGO      0.068516
     79 O5         22.7850   23.3800   33.8540 os         4 MGO     -0.427383
     80 C6         23.2050   21.3120   35.1070 c3         4 MGO      0.141081
     81 H61        22.6720   20.3690   35.2480 h1         4 MGO      0.057384
     82 H62        22.8940   21.9970   35.8980 h1         4 MGO      0.057384
     83 O6         24.6110   21.0600   35.2190 oh         4 MGO     -0.593555
     84 HO6        24.7800   20.1610   34.9060 ho         4 MGO      0.422027
     85 C1         16.9230   24.3110   32.6290 c3         5 MGO      0.304529
     86 H1         15.9470   24.8150   32.7750 h2         5 MGO      0.090782
     87 O1         16.7480   22.9020   32.2550 os         5 MGO     -0.453070
     88 C2         17.6670   25.0150   31.5000 c3         5 MGO      0.092199
     89 H2         17.7890   26.0750   31.7360 h1         5 MGO      0.102926
     90 O2         16.9230   24.8650   30.2800 oh         5 MGO     -0.586639
     91 HO2        16.3090   24.1210   30.3640 ho         5 MGO      0.425065
     92 C3         19.0190   24.3670   31.2760 c3         5 MGO      0.093211
     93 H3         18.8730   23.3430   30.9190 h1         5 MGO      0.064468
     94 O3         19.6970   25.1510   30.2810 oh         5 MGO     -0.592567
     95 HO3        19.0260   25.4280   29.6440 ho         5 MGO      0.421017
     96 C4         19.8420   24.3530   32.5560 c3         5 MGO      0.127621
     97 H4         20.1440   25.3740   32.7990 h1         5 MGO      0.080661
     98 C5         19.0580   23.7380   33.7310 c3         5 MGO      0.104343
     99 H5         18.8750   22.6890   33.4890 h1         5 MGO      0.068516
    100 O5         17.7380   24.4120   33.8530 os         5 MGO     -0.427383
    101 C6         19.7400   23.7420   35.1060 c3         5 MGO      0.141081
    102 H61        20.2890   22.8080   35.2470 h1         5 MGO      0.057384
    103 H62        18.9900   23.8150   35.8980 h1         5 MGO      0.057384
    104 O6         20.6610   24.8340   35.2180 oh         5 MGO     -0.593555
    105 HO6        21.5230   24.5300   34.9050 ho         5 MGO      0.422027
    106 C1         14.0000   19.7990   32.6290 c3         6 MGO      0.304529
    107 H1         13.0760   19.2070   32.7750 h2         6 MGO      0.090782
    108 O1         15.1320   18.9430   32.2540 os         6 MGO     -0.453070
    109 C2         13.7640   20.7970   31.5000 c3         6 MGO      0.092199
    110 H2         12.9060   21.4320   31.7360 h1         6 MGO      0.102926
    111 O2         13.5200   20.0780   30.2800 oh         6 MGO     -0.586639
    112 HO2        13.8580   19.1730   30.3630 ho         6 MGO      0.425065
    113 C3         15.0000   21.6430   31.2760 c3         6 MGO      0.093211
    114 H3         15.8140   21.0040   30.9200 h1         6 MGO      0.064468
    115 O3         14.6610   22.6230   30.2820 oh         6 MGO     -0.592567
    116 HO3        14.0850   22.1800   29.6440 ho         6 MGO      0.421017
    117 C4         15.4240   22.3480   32.5560 c3         6 MGO      0.127621
    118 H4         14.6900   23.1210   32.8000 h1         6 MGO      0.080661
    119 C5         15.5640   21.3630   33.7300 c3         6 MGO      0.104343
    120 H5         16.3820   20.6800   33.4890 h1         6 MGO      0.068516
    121 O5         14.3200   20.5560   33.8530 os         6 MGO     -0.427383
    122 C6         15.9030   21.9540   35.1060 c3         6 MGO      0.141081
    123 H61        16.9870   21.9630   35.2470 h1         6 MGO      0.057384
    124 H62        15.4650   21.3410   35.8980 h1         6 MGO      0.057384
    125 O6         15.4170   23.2990   35.2180 oh         6 MGO     -0.593555
    126 HO6        16.1120   23.8930   34.9050 ho         6 MGO      0.422027
@<TRIPOS>BOND
    1    17    20 1
    2    14    16 1
    3    14    17 1
    4    12    14 1
    5    12   108 1
    6     8    10 1
    7     8    12 1
    8     4     6 1
    9     4     8 1
   10     3    33 1
   11     1     3 1
   12     1     4 1
   13     1    16 1
   14    38    41 1
   15    35    37 1
   16    35    38 1
   17    33    35 1
   18    29    31 1
   19    29    33 1
   20    25    27 1
   21    25    29 1
   22    24    54 1
   23    22    24 1
   24    22    25 1
   25    22    37 1
   26    59    62 1
   27    56    58 1
   28    56    59 1
   29    54    56 1
   30    50    52 1
   31    50    54 1
   32    46    48 1
   33    46    50 1
   34    45    75 1
   35    43    45 1
   36    43    46 1
   37    43    58 1
   38    80    83 1
   39    77    79 1
   40    77    80 1
   41    75    77 1
   42    71    73 1
   43    71    75 1
   44    67    69 1
   45    67    71 1
   46    66    96 1
   47    64    66 1
   48    64    67 1
   49    64    79 1
   50   101   104 1
   51    98   100 1
   52    98   101 1
   53    96    98 1
   54    92    94 1
   55    92    96 1
   56    88    90 1
   57    88    92 1
   58    87   117 1
   59    85    87 1
   60    85    88 1
   61    85   100 1
   62   122   125 1
   63   119   121 1
   64   119   122 1
   65   117   119 1
   66   113   115 1
   67   113   117 1
   68   109   111 1
   69   109   113 1
   70   106   108 1
   71   106   109 1
   72   106   121 1
   73    20    21 1
   74    17    18 1
   75    17    19 1
   76    14    15 1
   77    12    13 1
   78    10    11 1
   79     8     9 1
   80     6     7 1
   81     4     5 1
   82     1     2 1
   83    41    42 1
   84    38    39 1
   85    38    40 1
   86    35    36 1
   87    33    34 1
   88    31    32 1
   89    29    30 1
   90    27    28 1
   91    25    26 1
   92    22    23 1
   93    62    63 1
   94    59    60 1
   95    59    61 1
   96    56    57 1
   97    54    55 1
   98    52    53 1
   99    50    51 1
  100    48    49 1
  101    46    47 1
  102    43    44 1
  103    83    84 1
  104    80    81 1
  105    80    82 1
  106    77    78 1
  107    75    76 1
  108    73    74 1
  109    71    72 1
  110    69    70 1
  111    67    68 1
  112    64    65 1
  113   104   105 1
  114   101   102 1
  115   101   103 1
  116    98    99 1
  117    96    97 1
  118    94    95 1
  119    92    93 1
  120    90    91 1
  121    88    89 1
  122    85    86 1
  123   125   126 1
  124   122   123 1
  125   122   124 1
  126   119   120 1
  127   117   118 1
  128   115   116 1
  129   113   114 1
  130   111   112 1
  131   109   110 1
  132   106   107 1
@<TRIPOS>SUBSTRUCTURE
      1 MGO               1 ****               0 ****  **** 
      2 MGO              22 ****               0 ****  **** 
      3 MGO              43 ****               0 ****  **** 
      4 MGO              64 ****               0 ****  **** 
      5 MGO              85 ****               0 ****  **** 
      6 MGO             106 ****               0 ****  **** 
