@<TRIPOS>MOLECULE
HPA
   26    25     1     0     0
SMALL
bcc


@<TRIPOS>ATOM
      1 C1         -0.0030    0.6460    0.8800 c3        1 HPA     -0.096074
      2 H3         -0.8940    1.2780    0.8390 hc        1 HPA      0.040711
      3 H4          0.8800    1.2880    0.8390 hc        1 HPA      0.040711
      4 H5         -0.0000    0.0000    0.0000 hc        1 HPA      0.040711
      5 C2          0.0010   -0.2040    2.1650 c3        1 HPA     -0.079379
      6 H6          0.8860   -0.8440    2.1680 hc        1 HPA      0.042711
      7 H7         -0.8780   -0.8540    2.1680 hc        1 HPA      0.042711
      8 C3         -0.0040    0.6850    3.4260 c3        1 HPA     -0.080378
      9 H8          0.8750    1.3360    3.4160 hc        1 HPA      0.046713
     10 H9         -0.8890    1.3260    3.4160 hc        1 HPA      0.046713
     11 C4          0.0010   -0.1680    4.7120 c3        1 HPA     -0.079379
     12 H10         0.8860   -0.8090    4.7210 hc        1 HPA      0.048713
     13 H11        -0.8780   -0.8180    4.7210 hc        1 HPA      0.048713
     14 C5         -0.0040    0.7210    5.9730 c3        1 HPA     -0.079379
     15 H12         0.8750    1.3710    5.9640 hc        1 HPA      0.057715
     16 H13        -0.8890    1.3620    5.9640 hc        1 HPA      0.057715
     17 C6          0.0010   -0.1320    7.2590 c3        1 HPA     -0.111370
     18 H14         0.8870   -0.7710    7.2720 hc        1 HPA      0.069719
     19 H15        -0.8790   -0.7800    7.2720 hc        1 HPA      0.069719
     20 C7         -0.0040    0.7680    8.5090 c3        1 HPA      0.098826
     21 H16         0.8800    1.4120    8.5070 hx        1 HPA      0.113730
     22 H17        -0.8940    1.4030    8.5070 hx        1 HPA      0.113730
     23 N1          0.0000    0.0000    9.8130 n4        1 HPA     -0.839375
     24 H1          0.8340   -0.6020    9.9010 hn        1 HPA      0.461924
     25 H2         -0.8280   -0.6110    9.9010 hn        1 HPA      0.461924
     26 HN11       -0.0030    0.6330   10.6300 hn        1 HPA      0.461925
@<TRIPOS>BOND
     1    1    2 1   
     2    1    3 1   
     3    1    4 1   
     4    1    5 1   
     5    5    6 1   
     6    5    7 1   
     7    5    8 1   
     8    8    9 1   
     9    8   10 1   
    10    8   11 1   
    11   11   12 1   
    12   11   13 1   
    13   11   14 1   
    14   14   15 1   
    15   14   16 1   
    16   14   17 1   
    17   17   18 1   
    18   17   19 1   
    19   17   20 1   
    20   20   21 1   
    21   20   22 1   
    22   20   23 1   
    23   23   24 1   
    24   23   25 1   
    25   23   26 1   
@<TRIPOS>SUBSTRUCTURE
     1 HPA         1 TEMP              0 ****  ****    0 ROOT
