@<TRIPOS>MOLECULE
Cpptraj
  147   154     1     0     0
SMALL
No Charge or Current Charge


@<TRIPOS>ATOM
      1 C1          19.1480    14.2960    34.3840 C.3        1 MGO       0.304529
      2 H1          18.3960    13.4930    34.2550 H          1 MGO       0.090782
      3 O1          18.5110    15.5840    34.6870 O.3        1 MGO      -0.453070
      4 C2          20.0560    13.9120    35.5480 C.3        1 MGO       0.092199
      5 H2          20.4940    12.9280    35.3640 H          1 MGO       0.102926
      6 O2          19.2950    13.8800    36.7680 O.3        1 MGO      -0.586639
      7 HO2         18.4610    14.3650    36.6520 H          1 MGO       0.425065
      8 C3          21.1510    14.9410    35.7370 C.3        1 MGO       0.093211
      9 H3          20.7080    15.8970    36.0320 H          1 MGO       0.064468
     10 O3          22.0140    14.4390    36.7710 O.3        1 MGO      -0.592567
     11 HO3         21.4390    14.0130    37.4210 H          1 MGO       0.421017
     12 C4          21.9450    15.1060    34.4510 C.3        1 MGO       0.127621
     13 H4          22.4760    14.1750    34.2390 H          1 MGO       0.080661
     14 C5          21.0260    15.4530    33.2700 C.3        1 MGO       0.104343
     15 H5          20.5420    16.4080    33.4920 H          1 MGO       0.068516
     16 O5          19.9660    14.4170    33.1610 O.3        1 MGO      -0.427383
     17 C6          21.6980    15.6250    31.8990 C.3        1 MGO       0.141081
     18 H61         22.0030    16.6660    31.7680 H          1 MGO       0.057384
     19 H62         20.9930    15.3750    31.1030 H          1 MGO       0.057384
     20 O6          22.8590    14.7910    31.7940 O.3        1 MGO      -0.593555
     21 HO6         23.6200    15.2920    32.1150 H          1 MGO       0.422027
     22 C1          14.6870    17.2770    34.3850 C.3        2 MGO       0.304529
     23 H1          13.5900    17.3640    34.2570 H          2 MGO       0.090782
     24 O1          15.2970    18.5790    34.6880 O.3        2 MGO      -0.453070
     25 C2          14.9530    16.3270    35.5500 C.3        2 MGO       0.092199
     26 H2          14.4570    15.3710    35.3650 H          2 MGO       0.102926
     27 O2          14.4560    16.9030    36.7680 O.3        2 MGO      -0.586639
     28 HO2         14.3140    17.8570    36.6530 H          2 MGO       0.425065
     29 C3          16.4410    16.1140    35.7370 C.3        2 MGO       0.093211
     30 H3          16.9130    17.0550    36.0320 H          2 MGO       0.064468
     31 O3          16.5870    15.1260    36.7700 O.3        2 MGO      -0.592567
     32 HO3         15.8940    15.3100    37.4220 H          2 MGO       0.421017
     33 C4          17.0650    15.5960    34.4510 C.3        2 MGO       0.127621
     34 H4          16.6680    14.5990    34.2390 H          2 MGO       0.080661
     35 C5          16.7630    16.5310    33.2700 C.3        2 MGO       0.104343
     36 H5          17.2070    17.5030    33.4930 H          2 MGO       0.068516
     37 O5          15.2910    16.7140    33.1620 O.3        2 MGO      -0.427383
     38 C6          17.3150    16.1130    31.9000 C.3        2 MGO       0.141081
     39 H61         18.3190    16.5220    31.7670 H          2 MGO       0.057384
     40 H62         16.6800    16.5070    31.1030 H          2 MGO       0.057384
     41 O6          17.3860    14.6850    31.7940 O.3        2 MGO      -0.593555
     42 HO6         18.2530    14.4020    32.1150 H          2 MGO       0.422027
     43 C1          14.2360    22.6240    34.3860 C.3        3 MGO       0.304529
     44 H1          13.6210    23.5360    34.2570 H          3 MGO       0.090782
     45 O1          15.6350    22.9570    34.6880 O.3        3 MGO      -0.453070
     46 C2          13.6610    21.8240    35.5500 C.3        3 MGO       0.092199
     47 H2          12.6030    21.6150    35.3660 H          3 MGO       0.102926
     48 O2          13.8000    22.5720    36.7690 O.3        3 MGO      -0.586639
     49 HO2         14.4580    23.2770    36.6530 H          3 MGO       0.425065
     50 C3          14.4210    20.5270    35.7380 C.3        3 MGO       0.093211
     51 H3          15.4520    20.7450    36.0330 H          3 MGO       0.064468
     52 O3          13.7400    19.7980    36.7710 O.3        3 MGO      -0.592567
     53 HO3         13.4530    20.4540    37.4230 H          3 MGO       0.421017
     54 C4          14.4040    19.7170    34.4520 C.3        3 MGO       0.127621
     55 H4          13.3770    19.4060    34.2400 H          3 MGO       0.080661
     56 C5          14.9460    20.5350    33.2710 C.3        3 MGO       0.104343
     57 H5          15.9840    20.7950    33.4930 H          3 MGO       0.068516
     58 O5          14.1720    21.8010    33.1630 O.3        3 MGO      -0.427383
     59 C6          14.9640    19.8430    31.9010 C.3        3 MGO       0.141081
     60 H61         15.9100    19.3130    31.7680 H          3 MGO       0.057384
     61 H62         14.8760    20.5850    31.1030 H          3 MGO       0.057384
     62 O6          13.8910    18.8960    31.7950 O.3        3 MGO      -0.593555
     63 HO6         14.2110    18.0430    32.1160 H          3 MGO       0.422027
     64 C1          18.1370    26.3100    34.3840 C.3        4 MGO       0.304529
     65 H1          18.4650    27.3590    34.2560 H          4 MGO       0.090782
     66 O1          19.2680    25.4240    34.6870 O.3        4 MGO      -0.453070
     67 C2          17.1510    26.2610    35.5490 C.3        4 MGO       0.092199
     68 H2          16.3300    26.9580    35.3640 H          4 MGO       0.102926
     69 O2          17.8240    26.6190    36.7680 O.3        4 MGO      -0.586639
     70 HO2         18.7850    26.5450    36.6520 H          4 MGO       0.425065
     71 C3          16.6120    24.8590    35.7370 C.3        4 MGO       0.093211
     72 H3          17.4250    24.1890    36.0330 H          4 MGO       0.064468
     73 O3          15.6170    24.9360    36.7700 O.3        4 MGO      -0.592567
     74 HO3         15.9500    25.5700    37.4210 H          4 MGO       0.421017
     75 C4          15.9680    24.3650    34.4520 C.3        4 MGO       0.127621
     76 H4          15.0850    24.9740    34.2390 H          4 MGO       0.080661
     77 C5          16.9460    24.4510    33.2710 C.3        4 MGO       0.104343
     78 H5          17.7960    23.8020    33.4930 H          4 MGO       0.068516
     79 O5          17.4520    25.8460    33.1620 O.3        4 MGO      -0.427383
     80 C6          16.4150    24.0060    31.9000 C.3        4 MGO       0.141081
     81 H61         16.5910    22.9350    31.7680 H          4 MGO       0.057384
     82 H62         16.9410    24.5370    31.1030 H          4 MGO       0.057384
     83 O6          15.0080    24.2540    31.7950 O.3        4 MGO      -0.593555
     84 HO6         14.5380    23.4730    32.1170 H          4 MGO       0.422027
     85 C1          23.4490    25.5590    34.3840 C.3        5 MGO       0.304529
     86 H1          24.4750    25.9560    34.2540 H          5 MGO       0.090782
     87 O1          23.4630    24.1220    34.6870 O.3        5 MGO      -0.453070
     88 C2          22.7970    26.2990    35.5480 C.3        5 MGO       0.092199
     89 H2          22.8300    27.3760    35.3630 H          5 MGO       0.102926
     90 O2          23.4960    25.9970    36.7670 O.3        5 MGO      -0.586639
     91 HO2         24.0370    25.1990    36.6520 H          5 MGO       0.425065
     92 C3          21.3640    25.8460    35.7360 C.3        5 MGO       0.093211
     93 H3          21.3470    24.7930    36.0320 H          5 MGO       0.064468
     94 O3          20.8040    26.6730    36.7700 O.3        5 MGO      -0.592567
     95 HO3         21.5070    26.8070    37.4200 H          5 MGO       0.421017
     96 C4          20.5770    26.0430    34.4510 C.3        5 MGO       0.127621
     97 H4          20.5020    27.1120    34.2380 H          5 MGO       0.080661
     98 C5          21.2540    25.3300    33.2700 C.3        5 MGO       0.104343
     99 H5          21.2770    24.2610    33.4930 H          5 MGO       0.068516
    100 O5          22.6600    25.8050    33.1610 O.3        5 MGO      -0.427383
    101 C6          20.5750    25.4670    31.8990 C.3        5 MGO       0.141081
    102 H61         19.8480    24.6630    31.7670 H          5 MGO       0.057384
    103 H62         21.3180    25.3860    31.1020 H          5 MGO       0.057384
    104 O6          19.8910    26.7220    31.7930 O.3        5 MGO      -0.593555
    105 HO6         18.9880    26.6020    32.1160 H          5 MGO       0.422027
    106 C1          26.1740    20.9370    34.3850 C.3        6 MGO       0.304529
    107 H1          27.1250    20.3830    34.2570 H          6 MGO       0.090782
    108 O1          25.0600    20.0300    34.6870 O.3        6 MGO      -0.453070
    109 C2          26.3460    21.9080    35.5490 C.3        6 MGO       0.092199
    110 H2          27.2090    22.5550    35.3650 H          6 MGO       0.102926
    111 O2          26.5460    21.1740    36.7680 O.3        6 MGO      -0.586639
    112 HO2         26.2590    20.2530    36.6530 H          6 MGO       0.425065
    113 C3          25.0990    22.7460    35.7380 C.3        6 MGO       0.093211
    114 H3          24.2660    22.1020    36.0330 H          6 MGO       0.064468
    115 O3          25.3960    23.6990    36.7710 O.3        6 MGO      -0.592567
    116 HO3         25.9400    23.2340    37.4220 H          6 MGO       0.421017
    117 C4          24.7630    23.4840    34.4510 C.3        6 MGO       0.127621
    118 H4          25.5520    24.2090    34.2390 H          6 MGO       0.080661
    119 C5          24.6280    22.5100    33.2710 C.3        6 MGO       0.104343
    120 H5          23.8070    21.8270    33.4920 H          6 MGO       0.068516
    121 O5          25.8760    21.7070    33.1620 O.3        6 MGO      -0.427383
    122 C6          24.3130    23.1260    31.9000 C.3        6 MGO       0.141081
    123 H61         23.2310    23.1930    31.7670 H          6 MGO       0.057384
    124 H62         24.7130    22.4950    31.1030 H          6 MGO       0.057384
    125 O6          24.8680    24.4440    31.7940 O.3        6 MGO      -0.593555
    126 HO6         24.2100    25.0750    32.1150 H          6 MGO       0.422027
    127 C1          24.2600    15.9240    34.3850 C.3        7 MGO       0.304529
    128 H1          24.4190    14.8360    34.2560 H          7 MGO       0.090782
    129 O1          22.8560    16.2310    34.6870 O.3        7 MGO      -0.453070
    130 C2          25.1270    16.3950    35.5500 C.3        7 MGO       0.092199
    131 H2          26.1700    16.1240    35.3650 H          7 MGO       0.102926
    132 O2          24.6760    15.7820    36.7680 O.3        7 MGO      -0.586639
    133 HO2         23.7780    15.4310    36.6530 H          7 MGO       0.425065
    134 C3          25.0040    17.8930    35.7380 C.3        7 MGO       0.093211
    135 H3          23.9810    18.1440    36.0330 H          7 MGO       0.064468
    136 O3          25.9340    18.2550    36.7720 O.3        7 MGO      -0.592567
    137 HO3         25.9090    17.5400    37.4220 H          7 MGO       0.421017
    138 C4          25.3710    18.6170    34.4520 C.3        7 MGO       0.127621
    139 H4          26.4300    18.4510    34.2400 H          7 MGO       0.080661
    140 C5          24.5260    18.1140    33.2700 C.3        7 MGO       0.104343
    141 H5          23.4790    18.3310    33.4930 H          7 MGO       0.068516
    142 O5          24.6760    16.6390    33.1630 O.3        7 MGO      -0.427383
    143 C6          24.8110    18.7460    31.9000 C.3        7 MGO       0.141081
    144 H61         24.1890    19.6340    31.7670 H          7 MGO       0.057384
    145 H62         24.5680    18.0390    31.1030 H          7 MGO       0.057384
    146 O6          26.1880    19.1330    31.7950 O.3        7 MGO      -0.593555
    147 HO6         26.2710    20.0410    32.1170 H          7 MGO       0.422027
@<TRIPOS>BOND
     1    17    20 1   
     2    14    16 1   
     3    14    17 1   
     4    12    14 1   
     5    12   129 1   
     6     8    10 1   
     7     8    12 1   
     8     4     6 1   
     9     4     8 1   
    10     3    33 1   
    11     1     3 1   
    12     1     4 1   
    13     1    16 1   
    14    38    41 1   
    15    35    37 1   
    16    35    38 1   
    17    33    35 1   
    18    29    31 1   
    19    29    33 1   
    20    25    27 1   
    21    25    29 1   
    22    24    54 1   
    23    22    24 1   
    24    22    25 1   
    25    22    37 1   
    26    59    62 1   
    27    56    58 1   
    28    56    59 1   
    29    54    56 1   
    30    50    52 1   
    31    50    54 1   
    32    46    48 1   
    33    46    50 1   
    34    45    75 1   
    35    43    45 1   
    36    43    46 1   
    37    43    58 1   
    38    80    83 1   
    39    77    79 1   
    40    77    80 1   
    41    75    77 1   
    42    71    73 1   
    43    71    75 1   
    44    67    69 1   
    45    67    71 1   
    46    66    96 1   
    47    64    66 1   
    48    64    67 1   
    49    64    79 1   
    50   101   104 1   
    51    98   100 1   
    52    98   101 1   
    53    96    98 1   
    54    92    94 1   
    55    92    96 1   
    56    88    90 1   
    57    88    92 1   
    58    87   117 1   
    59    85    87 1   
    60    85    88 1   
    61    85   100 1   
    62   122   125 1   
    63   119   121 1   
    64   119   122 1   
    65   117   119 1   
    66   113   115 1   
    67   113   117 1   
    68   109   111 1   
    69   109   113 1   
    70   108   138 1   
    71   106   108 1   
    72   106   109 1   
    73   106   121 1   
    74   143   146 1   
    75   140   142 1   
    76   140   143 1   
    77   138   140 1   
    78   134   136 1   
    79   134   138 1   
    80   130   132 1   
    81   130   134 1   
    82   127   129 1   
    83   127   130 1   
    84   127   142 1   
    85    20    21 1   
    86    17    18 1   
    87    17    19 1   
    88    14    15 1   
    89    12    13 1   
    90    10    11 1   
    91     8     9 1   
    92     6     7 1   
    93     4     5 1   
    94     1     2 1   
    95    41    42 1   
    96    38    39 1   
    97    38    40 1   
    98    35    36 1   
    99    33    34 1   
   100    31    32 1   
   101    29    30 1   
   102    27    28 1   
   103    25    26 1   
   104    22    23 1   
   105    62    63 1   
   106    59    60 1   
   107    59    61 1   
   108    56    57 1   
   109    54    55 1   
   110    52    53 1   
   111    50    51 1   
   112    48    49 1   
   113    46    47 1   
   114    43    44 1   
   115    83    84 1   
   116    80    81 1   
   117    80    82 1   
   118    77    78 1   
   119    75    76 1   
   120    73    74 1   
   121    71    72 1   
   122    69    70 1   
   123    67    68 1   
   124    64    65 1   
   125   104   105 1   
   126   101   102 1   
   127   101   103 1   
   128    98    99 1   
   129    96    97 1   
   130    94    95 1   
   131    92    93 1   
   132    90    91 1   
   133    88    89 1   
   134    85    86 1   
   135   125   126 1   
   136   122   123 1   
   137   122   124 1   
   138   119   120 1   
   139   117   118 1   
   140   115   116 1   
   141   113   114 1   
   142   111   112 1   
   143   109   110 1   
   144   106   107 1   
   145   146   147 1   
   146   143   144 1   
   147   143   145 1   
   148   140   141 1   
   149   138   139 1   
   150   136   137 1   
   151   134   135 1   
   152   132   133 1   
   153   130   131 1   
   154   127   128 1   
@<TRIPOS>SUBSTRUCTURE
     1 MGO         1 TEMP              0 ****  ****    0 ROOT
