@<TRIPOS>MOLECULE
Cpptraj
   21    21     1     0     0
SMALL
No Charge or Current Charge


@<TRIPOS>ATOM
      1 C1          21.3980    20.0920    38.1680 C.2        1 MO4       0.917404
      2 O1          21.6930    18.9320    38.4070 O.co2      1 MO4      -0.842980
      3 O2          22.1900    20.9960    38.3830 O.co2      1 MO4      -0.842980
      4 C2          20.0130    20.4180    37.6100 C.3        1 MO4      -0.171137
      5 H1          19.6830    21.4000    37.9660 H          1 MO4       0.036692
      6 H2          19.2760    19.7000    37.9850 H          1 MO4       0.036692
      7 C3          20.0120    20.4010    36.0890 C.ar       1 MO4      -0.041309
      8 C4          19.7280    19.2210    35.3970 C.ar       1 MO4      -0.111024
      9 H3          19.5100    18.3070    35.9500 H          1 MO4       0.156467
     10 C5          19.7240    19.2040    34.0010 C.ar       1 MO4      -0.184539
     11 H4          19.5010    18.2750    33.4840 H          1 MO4       0.121474
     12 C6          20.0040    20.3720    33.2830 C.ar       1 MO4       0.075084
     13 O3          20.0130    20.4180    31.9000 O.3        1 MO4      -0.346974
     14 C7          19.7350    19.2620    31.0710 C.3        1 MO4       0.121674
     15 H5          19.8040    19.5530    30.0190 H          1 MO4       0.031026
     16 H6          18.7250    18.8940    31.2780 H          1 MO4       0.031026
     17 H7          20.4680    18.4760    31.2770 H          1 MO4       0.031026
     18 C8          20.2860    21.5480    33.9740 C.ar       1 MO4      -0.184539
     19 H8          20.5030    22.4570    33.4180 H          1 MO4       0.121474
     20 C9          20.2910    21.5660    35.3700 C.ar       1 MO4      -0.111024
     21 H9          20.5140    22.4920    35.9000 H          1 MO4       0.156467
@<TRIPOS>BOND
     1    18    20 ar  
     2    13    14 1   
     3    12    13 1   
     4    12    18 ar  
     5    10    12 ar  
     6     8    10 ar  
     7     7     8 ar  
     8     7    20 ar  
     9     4     7 1   
    10     1     2 1   
    11     1     3 1   
    12     1     4 1   
    13    20    21 1   
    14    18    19 1   
    15    14    15 1   
    16    14    16 1   
    17    14    17 1   
    18    10    11 1   
    19     8     9 1   
    20     4     5 1   
    21     4     6 1   
@<TRIPOS>SUBSTRUCTURE
     1 MO4         1 TEMP              0 ****  ****    0 ROOT
