@<TRIPOS>MOLECULE
Cpptraj
   22    22     1     0     0
SMALL
No Charge or Current Charge


@<TRIPOS>ATOM
      1 C1          20.4690    20.3440    32.3120 C.3        1 M4T      -0.090183
      2 H2          19.4600    20.2150    31.9150 H          1 M4T       0.034002
      3 H3          20.7160    21.4060    32.2640 H          1 M4T       0.034002
      4 H4          21.2520    19.7630    31.8200 H          1 M4T       0.034002
      5 C2          20.4380    19.8070    33.7740 C.3        1 M4T      -0.067762
      6 H5          20.4510    18.7380    33.5550 H          1 M4T       0.049654
      7 C3          19.1570    20.2030    34.4700 C.3        1 M4T      -0.072466
      8 H6          19.0720    21.2790    34.3070 H          1 M4T       0.041912
      9 H7          18.2850    19.7710    33.9760 H          1 M4T       0.041912
     10 C4          19.1470    19.8690    35.9790 C.3        1 M4T      -0.093486
     11 H8          19.1910    18.7820    36.0680 H          1 M4T       0.050154
     12 H9          18.2700    20.3530    36.4150 H          1 M4T       0.050154
     13 C5          20.4690    20.3440    36.6620 C.3        1 M4T       0.141970
     14 H10         20.4110    21.4350    36.6840 H          1 M4T       0.031671
     15 C6          21.6430    19.8040    35.9950 C.3        1 M4T      -0.093486
     16 H11         21.6840    18.7250    36.1630 H          1 M4T       0.050154
     17 H12         22.5990    20.1630    36.3800 H          1 M4T       0.050154
     18 C7          21.7500    20.1460    34.5020 C.3        1 M4T      -0.072466
     19 H13         22.5730    19.6330    33.9990 H          1 M4T       0.041912
     20 H14         21.9740    21.2130    34.4520 H          1 M4T       0.041912
     21 O1          20.4020    19.8690    37.9420 O.3        1 M4T      -0.601350
     22 H1          19.4380    19.9160    38.0750 H          1 M4T       0.397634
@<TRIPOS>BOND
     1    15    18 1   
     2    13    15 1   
     3    13    21 1   
     4    10    13 1   
     5     7    10 1   
     6     5     7 1   
     7     5    18 1   
     8     1     5 1   
     9    21    22 1   
    10    18    19 1   
    11    18    20 1   
    12    15    16 1   
    13    15    17 1   
    14    13    14 1   
    15    10    11 1   
    16    10    12 1   
    17     7     8 1   
    18     7     9 1   
    19     5     6 1   
    20     1     2 1   
    21     1     3 1   
    22     1     4 1   
@<TRIPOS>SUBSTRUCTURE
     1 M4T         1 TEMP              0 ****  ****    0 ROOT
