@<TRIPOS>MOLECULE
Cpptraj generated mol2 file.
  147   154     7     0     0
SMALL
USER_CHARGES


@<TRIPOS>ATOM
      1 C1         22.9810   14.5860   34.4980 c3         1 MGO      0.304529
      2 H1         23.9530   14.0730   34.6410 h2         1 MGO      0.090782
      3 O1         23.1660   16.0070   34.1810 os         1 MGO     -0.453070
      4 C2         22.2570   13.9130   33.3350 c3         1 MGO      0.092199
      5 H2         22.1620   12.8420   33.5320 h1         1 MGO      0.102926
      6 O2         22.9970   14.1170   32.1200 oh         1 MGO     -0.586639
      7 HO2        23.6270   14.8490   32.2330 ho         1 MGO      0.425065
      8 C3         20.8880   14.5270   33.1280 c3         1 MGO      0.093211
      9 H3         20.9980   15.5710   32.8220 h1         1 MGO      0.064468
     10 O3         20.2440   13.7590   32.0980 oh         1 MGO     -0.592567
     11 HO3        20.9320   13.5370   31.4560 ho         1 MGO      0.421017
     12 C4         20.0740   14.4390   34.4080 c3         1 MGO      0.127621
     13 H4         19.8720   13.3870   34.6310 h1         1 MGO      0.080661
     14 C5         20.8190   15.0800   35.5890 c3         1 MGO      0.104343
     15 H5         20.9670   16.1380   35.3550 h1         1 MGO      0.068516
     16 O5         22.1580   14.4470   35.7160 os         1 MGO     -0.427383
     17 C6         20.1160   15.0400   36.9540 c3         1 MGO      0.141081
     18 H61        19.4870   15.9250   37.0700 h1         1 MGO      0.057384
     19 H62        20.8570   15.0420   37.7570 h1         1 MGO      0.057384
     20 O6         19.2890   13.8740   37.0650 oh         1 MGO     -0.593555
     21 HO6        18.4090   14.0950   36.7340 ho         1 MGO      0.422027
     22 C1         26.2260   18.8580   34.4760 c3         2 MGO      0.304529
     23 H1         27.2350   19.2990   34.6080 h2         2 MGO      0.090782
     24 O1         25.2280   19.8860   34.1530 os         2 MGO     -0.453070
     25 C2         26.2940   17.8600   33.3230 c3         2 MGO      0.092199
     26 H2         27.0740   17.1200   33.5230 h1         2 MGO      0.102926
     27 O2         26.5870   18.5520   32.0990 oh         2 MGO     -0.586639
     28 HO2        26.4100   19.5020   32.2020 ho         2 MGO      0.425065
     29 C3         24.9590   17.1710   33.1320 c3         2 MGO      0.093211
     30 H3         24.2080   17.9040   32.8230 h1         2 MGO      0.064468
     31 O3         25.1520   16.1780   32.1120 oh         2 MGO     -0.592567
     32 HO3        25.7510   16.5700   31.4610 ho         2 MGO      0.421017
     33 C4         24.5270   16.4920   34.4220 c3         2 MGO      0.127621
     34 H4         25.2250   15.6820   34.6490 h1         2 MGO      0.080661
     35 C5         24.4980   17.4880   35.5920 c3         2 MGO      0.104343
     36 H5         23.7630   18.2600   35.3540 h1         2 MGO      0.068516
     37 O5         25.8290   18.1420   35.7040 os         2 MGO     -0.427383
     38 C6         24.1010   16.9290   36.9660 c3         2 MGO      0.141081
     39 H61        23.0170   16.9900   37.0890 h1         2 MGO      0.057384
     40 H62        24.5650   17.5170   37.7600 h1         2 MGO      0.057384
     41 O6         24.4980   15.5560   37.0910 oh         2 MGO     -0.593555
     42 HO6        23.7730   15.0040   36.7690 ho         2 MGO      0.422027
     43 C1         24.9110   24.0590   34.4050 c3         3 MGO      0.304529
     44 H1         25.1930   25.1230   34.5240 h2         3 MGO      0.090782
     45 O1         23.4820   23.9150   34.0930 os         3 MGO     -0.453070
     46 C2         25.7250   23.4770   33.2540 c3         3 MGO      0.092199
     47 H2         26.7910   23.6270   33.4450 h1         3 MGO      0.102926
     48 O2         25.3590   24.1250   32.0240 oh         3 MGO     -0.586639
     49 HO2        24.5070   24.5790   32.1290 ho         3 MGO      0.425065
     50 C3         25.4300   22.0010   33.0800 c3         3 MGO      0.093211
     51 H3         24.3870   21.8680   32.7790 h1         3 MGO      0.064468
     52 O3         26.3210   21.5230   32.0600 oh         3 MGO     -0.592567
     53 HO3        26.3840   22.2290   31.4010 ho         3 MGO      0.421017
     54 C4         25.7000   21.2560   34.3780 c3         3 MGO      0.127621
     55 H4         26.7700   21.2990   34.5970 h1         3 MGO      0.080661
     56 C5         24.9110   21.8650   35.5450 c3         3 MGO      0.104343
     57 H5         23.8470   21.7700   35.3150 h1         3 MGO      0.068516
     58 O5         25.2300   23.3160   35.6390 os         3 MGO     -0.427383
     59 C6         25.1080   21.2220   36.9250 c3         3 MGO      0.141081
     60 H61        24.3860   20.4140   37.0600 h1         3 MGO      0.057384
     61 H62        24.9430   21.9610   37.7120 h1         3 MGO      0.057384
     62 O6         26.4290   20.6770   37.0470 oh         3 MGO     -0.593555
     63 HO6        26.4080   19.7630   36.7360 ho         3 MGO      0.422027
     64 C1         20.0220   26.2720   34.3410 c3         4 MGO      0.304529
     65 H1         19.3680   27.1590   34.4540 h2         4 MGO      0.090782
     66 O1         19.2440   25.0620   34.0450 os         4 MGO     -0.453070
     67 C2         20.9790   26.5340   33.1810 c3         4 MGO      0.092199
     68 H2         21.5280   27.4630   33.3600 h1         4 MGO      0.102926
     69 O2         20.2370   26.6390   31.9540 oh         4 MGO     -0.586639
     70 HO2        19.3520   26.2570   32.0670 ho         4 MGO      0.425065
     71 C3         21.9480   25.3820   33.0130 c3         4 MGO      0.093211
     72 H3         21.4000   24.4810   32.7240 h1         4 MGO      0.064468
     73 O3         22.8720   25.7680   31.9840 oh         4 MGO     -0.592567
     74 HO3        22.3560   26.2510   31.3230 ho         4 MGO      0.421017
     75 C4         22.7070   25.1400   34.3080 c3         4 MGO      0.127621
     76 H4         23.3410   26.0060   34.5160 h1         4 MGO      0.080661
     77 C5         21.7440   24.9160   35.4840 c3         4 MGO      0.104343
     78 H5         21.1540   24.0220   35.2670 h1         4 MGO      0.068516
     79 O5         20.8100   26.0710   35.5720 os         4 MGO     -0.427383
     80 C6         22.3790   24.6830   36.8630 c3         4 MGO      0.141081
     81 H61        22.5610   23.6160   37.0090 h1         4 MGO      0.057384
     82 H62        21.7030   25.0230   37.6510 h1         4 MGO      0.057384
     83 O6         23.6280   25.3780   36.9710 oh         4 MGO     -0.593555
     84 HO6        24.3290   24.7890   36.6610 ho         4 MGO      0.422027
     85 C1         15.2450   23.8300   34.3290 c3         5 MGO      0.304529
     86 H1         14.1450   23.8740   34.4490 h2         5 MGO      0.090782
     87 O1         15.7020   22.4650   34.0450 os         5 MGO     -0.453070
     88 C2         15.6290   24.7290   33.1570 c3         5 MGO      0.092199
     89 H2         15.2460   25.7400   33.3280 h1         5 MGO      0.102926
     90 O2         15.0770   24.2030   31.9400 oh         5 MGO     -0.586639
     91 HO2        14.8250   23.2740   32.0630 ho         5 MGO      0.425065
     92 C3         17.1340   24.7670   32.9820 c3         5 MGO      0.093211
     93 H3         17.4940   23.7730   32.7000 h1         5 MGO      0.064468
     94 O3         17.4020   25.7190   31.9390 oh         5 MGO     -0.592567
     95 HO3        16.6990   25.6090   31.2840 ho         5 MGO      0.421017
     96 C4         17.8020   25.2240   34.2670 c3         5 MGO      0.127621
     97 H4         17.5230   26.2610   34.4660 h1         5 MGO      0.080661
     98 C5         17.3850   24.3420   35.4550 c3         5 MGO      0.104343
     99 H5         17.7130   23.3230   35.2460 h1         5 MGO      0.068516
    100 O5         15.8990   24.3340   35.5520 os         5 MGO     -0.427383
    101 C6         17.9700   24.7080   36.8270 c3         5 MGO      0.141081
    102 H61        18.9190   24.1870   36.9730 h1         5 MGO      0.057384
    103 H62        17.2880   24.4000   37.6210 h1         5 MGO      0.057384
    104 O6         18.2070   26.1200   36.9190 oh         5 MGO     -0.593555
    105 HO6        19.1030   26.2970   36.6020 ho         5 MGO      0.422027
    106 C1         14.1740   18.5730   34.3790 c3         6 MGO      0.304529
    107 H1         13.4540   17.7410   34.5100 h2         6 MGO      0.090782
    108 O1         15.5260   18.0760   34.0930 os         6 MGO     -0.453070
    109 C2         13.7040   19.4220   33.2000 c3         6 MGO      0.092199
    110 H2         12.6770   19.7540   33.3720 h1         6 MGO      0.102926
    111 O2         13.7660   18.6490   31.9910 oh         6 MGO     -0.586639
    112 HO2        14.3350   17.8730   32.1200 ho         6 MGO      0.425065
    113 C3         14.6130   20.6190   33.0060 c3         6 MGO      0.093211
    114 H3         15.6130   20.2780   32.7230 h1         6 MGO      0.064468
    115 O3         14.0300   21.4110   31.9590 oh         6 MGO     -0.592567
    116 HO3        13.6730   20.7870   31.3120 ho         6 MGO      0.421017
    117 C4         14.6790   21.4400   34.2840 c3         6 MGO      0.127621
    118 H4         13.6950   21.8710   34.4820 h1         6 MGO      0.080661
    119 C5         15.1140   20.5770   35.4790 c3         6 MGO      0.104343
    120 H5         16.1150   20.1970   35.2690 h1         6 MGO      0.068516
    121 O5         14.1950   19.4120   35.5920 os         6 MGO     -0.427383
    122 C6         15.2000   21.2780   36.8410 c3         6 MGO      0.141081
    123 H61        16.2000   21.6950   36.9770 h1         6 MGO      0.057384
    124 H62        15.0200   20.5600   37.6450 h1         6 MGO      0.057384
    125 O6         14.2450   22.3450   36.9270 oh         6 MGO     -0.593555
    126 HO6        14.6650   23.1510   36.6010 ho         6 MGO      0.422027
    127 C1         17.6180   14.4590   34.4540 c3         7 MGO      0.304529
    128 H1         17.8210   13.3790   34.5970 h2         7 MGO      0.090782
    129 O1         18.8470   15.2020   34.1530 os         7 MGO     -0.453070
    130 C2         16.6550   14.6080   33.2790 c3         7 MGO      0.092199
    131 H2         15.7550   14.0140   33.4640 h1         7 MGO      0.102926
    132 O2         17.2910   14.1610   32.0710 oh         7 MGO     -0.586639
    133 HO2        18.2530   14.1240   32.1950 ho         7 MGO      0.425065
    134 C3         16.2840   16.0620   33.0710 c3         7 MGO      0.093211
    135 H3         17.1720   16.6290   32.7770 h1         7 MGO      0.064468
    136 O3         15.2950   16.0890   32.0290 oh         7 MGO     -0.592567
    137 HO3        15.5570   15.4140   31.3880 ho         7 MGO      0.421017
    138 C4         15.6900   16.6410   34.3470 c3         7 MGO      0.127621
    139 H4         14.7410   16.1420   34.5550 h1         7 MGO      0.080661
    140 C5         16.6420   16.4550   35.5380 c3         7 MGO      0.104343
    141 H5         17.5640   16.9980   35.3170 h1         7 MGO      0.068516
    142 O5         16.9810   15.0120   35.6640 os         7 MGO     -0.427383
    143 C6         16.1560   16.9740   36.8990 c3         7 MGO      0.141081
    144 H61        16.4540   18.0170   37.0220 h1         7 MGO      0.057384
    145 H62        16.6100   16.3950   37.7060 h1         7 MGO      0.057384
    146 O6         14.7270   16.8930   36.9930 oh         7 MGO     -0.593555
    147 HO6        14.3560   17.7200   36.6590 ho         7 MGO      0.422027
@<TRIPOS>BOND
    1    17    20 1
    2    14    16 1
    3    14    17 1
    4    12    14 1
    5    12   129 1
    6     8    10 1
    7     8    12 1
    8     4     6 1
    9     4     8 1
   10     3    33 1
   11     1     3 1
   12     1     4 1
   13     1    16 1
   14    38    41 1
   15    35    37 1
   16    35    38 1
   17    33    35 1
   18    29    31 1
   19    29    33 1
   20    25    27 1
   21    25    29 1
   22    24    54 1
   23    22    24 1
   24    22    25 1
   25    22    37 1
   26    59    62 1
   27    56    58 1
   28    56    59 1
   29    54    56 1
   30    50    52 1
   31    50    54 1
   32    46    48 1
   33    46    50 1
   34    45    75 1
   35    43    45 1
   36    43    46 1
   37    43    58 1
   38    80    83 1
   39    77    79 1
   40    77    80 1
   41    75    77 1
   42    71    73 1
   43    71    75 1
   44    67    69 1
   45    67    71 1
   46    66    96 1
   47    64    66 1
   48    64    67 1
   49    64    79 1
   50   101   104 1
   51    98   100 1
   52    98   101 1
   53    96    98 1
   54    92    94 1
   55    92    96 1
   56    88    90 1
   57    88    92 1
   58    87   117 1
   59    85    87 1
   60    85    88 1
   61    85   100 1
   62   122   125 1
   63   119   121 1
   64   119   122 1
   65   117   119 1
   66   113   115 1
   67   113   117 1
   68   109   111 1
   69   109   113 1
   70   108   138 1
   71   106   108 1
   72   106   109 1
   73   106   121 1
   74   143   146 1
   75   140   142 1
   76   140   143 1
   77   138   140 1
   78   134   136 1
   79   134   138 1
   80   130   132 1
   81   130   134 1
   82   127   129 1
   83   127   130 1
   84   127   142 1
   85    20    21 1
   86    17    18 1
   87    17    19 1
   88    14    15 1
   89    12    13 1
   90    10    11 1
   91     8     9 1
   92     6     7 1
   93     4     5 1
   94     1     2 1
   95    41    42 1
   96    38    39 1
   97    38    40 1
   98    35    36 1
   99    33    34 1
  100    31    32 1
  101    29    30 1
  102    27    28 1
  103    25    26 1
  104    22    23 1
  105    62    63 1
  106    59    60 1
  107    59    61 1
  108    56    57 1
  109    54    55 1
  110    52    53 1
  111    50    51 1
  112    48    49 1
  113    46    47 1
  114    43    44 1
  115    83    84 1
  116    80    81 1
  117    80    82 1
  118    77    78 1
  119    75    76 1
  120    73    74 1
  121    71    72 1
  122    69    70 1
  123    67    68 1
  124    64    65 1
  125   104   105 1
  126   101   102 1
  127   101   103 1
  128    98    99 1
  129    96    97 1
  130    94    95 1
  131    92    93 1
  132    90    91 1
  133    88    89 1
  134    85    86 1
  135   125   126 1
  136   122   123 1
  137   122   124 1
  138   119   120 1
  139   117   118 1
  140   115   116 1
  141   113   114 1
  142   111   112 1
  143   109   110 1
  144   106   107 1
  145   146   147 1
  146   143   144 1
  147   143   145 1
  148   140   141 1
  149   138   139 1
  150   136   137 1
  151   134   135 1
  152   132   133 1
  153   130   131 1
  154   127   128 1
@<TRIPOS>SUBSTRUCTURE
      1 MGO               1 ****               0 ****  **** 
      2 MGO              22 ****               0 ****  **** 
      3 MGO              43 ****               0 ****  **** 
      4 MGO              64 ****               0 ****  **** 
      5 MGO              85 ****               0 ****  **** 
      6 MGO             106 ****               0 ****  **** 
      7 MGO             127 ****               0 ****  **** 
