@<TRIPOS>MOLECULE
Cpptraj generated mol2 file.
   22    22     1     0     0
SMALL
USER_CHARGES


@<TRIPOS>ATOM
      1 C1         20.2570   19.9190   33.0820 c3         1 CHP     -0.075900
      2 H2         20.5460   19.2240   32.2900 hc         1 CHP      0.037950
      3 H3         19.4190   20.5010   32.6910 hc         1 CHP      0.037950
      4 C2         21.4480   20.8700   33.3420 c3         1 CHP     -0.075900
      5 H4         22.3860   20.3170   33.2450 hc         1 CHP      0.037950
      6 H5         21.4550   21.6200   32.5470 hc         1 CHP      0.037950
      7 C3         21.4100   21.5930   34.7070 c3         1 CHP     -0.072400
      8 H6         20.3870   21.8580   34.9840 hc         1 CHP      0.038450
      9 H7         21.9550   22.5340   34.5990 hc         1 CHP      0.038450
     10 C4         22.1070   20.7800   35.8230 c3         1 CHP     -0.107400
     11 H8         23.0970   20.4750   35.4750 hc         1 CHP      0.049700
     12 H9         22.2840   21.4430   36.6750 hc         1 CHP      0.049700
     13 C5         21.3510   19.5260   36.3250 c3         1 CHP      0.142100
     14 H10        22.0570   18.9670   36.9490 h1         1 CHP      0.066700
     15 C6         20.8680   18.5550   35.2160 c3         1 CHP     -0.107400
     16 H11        21.7180   18.2240   34.6130 hc         1 CHP      0.049700
     17 H12        20.4820   17.6610   35.7100 hc         1 CHP      0.049700
     18 C7         19.7510   19.1130   34.2990 c3         1 CHP     -0.072400
     19 H13        19.1690   18.2700   33.9150 hc         1 CHP      0.038450
     20 H14        19.0500   19.7200   34.8740 hc         1 CHP      0.038450
     21 O1         20.2570   19.9190   37.1730 oh         1 CHP     -0.598800
     22 H1         19.6540   20.5090   36.6430 ho         1 CHP      0.397000
@<TRIPOS>BOND
    1    15    18 1
    2    13    15 1
    3    13    21 1
    4    10    13 1
    5     7    10 1
    6     4     7 1
    7     1     4 1
    8     1    18 1
    9    21    22 1
   10    18    19 1
   11    18    20 1
   12    15    16 1
   13    15    17 1
   14    13    14 1
   15    10    11 1
   16    10    12 1
   17     7     8 1
   18     7     9 1
   19     4     5 1
   20     4     6 1
   21     1     2 1
   22     1     3 1
@<TRIPOS>SUBSTRUCTURE
      1 CHP               1 ****               0 ****  **** 
