@<TRIPOS>MOLECULE
PHA
   17    17     1     0     0
SMALL
bcc


@<TRIPOS>ATOM
      1 C1         -1.3060   -0.0810    7.2730  c        1 PHA      0.918165
      2 O1         -2.0770    0.8400    7.4940  o        1 PHA     -0.842199
      3 O2         -1.6270   -1.2370    7.4930  o        1 PHA     -0.842199
      4 C2          0.0830    0.2220    6.7240 c3        1 PHA     -0.176183
      5 H1          0.8030   -0.5170    7.0920 hc        1 PHA      0.037182
      6 H2          0.4320    1.1920    7.0920 hc        1 PHA      0.037182
      7 C3          0.0820    0.2220    5.2040 ca        1 PHA     -0.014307
      8 C4          0.3390   -0.9570    4.4980 ca        1 PHA     -0.138566
      9 H3          0.5380   -1.8810    5.0390 ha        1 PHA      0.151928
     10 C5          0.3390   -0.9570    3.1040 ca        1 PHA     -0.145569
     11 H4          0.5390   -1.8790    2.5590 ha        1 PHA      0.106450
     12 C6          0.0830    0.2220    2.4070 ca        1 PHA     -0.169080
     13 H5          0.0830    0.2210    1.3170 ha        1 PHA      0.102951
     14 C7         -0.1730    1.4000    3.1040 ca        1 PHA     -0.145569
     15 H6         -0.3730    2.3210    2.5590 ha        1 PHA      0.106450
     16 C8         -0.1730    1.4000    4.4980 ca        1 PHA     -0.138566
     17 H7         -0.3750    2.3230    5.0390 ha        1 PHA      0.151930
@<TRIPOS>BOND
     1    1    2 1   
     2    1    3 1   
     3    1    4 1   
     4    4    5 1   
     5    4    6 1   
     6    4    7 1   
     7    7    8 ar  
     8    7   16 ar  
     9    8    9 1   
    10    8   10 ar  
    11   10   11 1   
    12   10   12 ar  
    13   12   13 1   
    14   12   14 ar  
    15   14   15 1   
    16   14   16 ar  
    17   16   17 1   
@<TRIPOS>SUBSTRUCTURE
     1 PHA         1 TEMP              0 ****  ****    0 ROOT
