@<TRIPOS>MOLECULE
BUT
   13    12     1     0     0
SMALL
bcc


@<TRIPOS>ATOM
      1 C1          0.0070    0.6430    3.8730  c        1 BUT      0.907309
      2 O1          0.0190    1.8630    3.9110  o        1 BUT     -0.855574
      3 O2          0.0000   -0.0000    4.9090  o        1 BUT     -0.855574
      4 C2         -0.0010   -0.1130    2.5440 c3        1 BUT     -0.192462
      5 H1         -0.8880   -0.7540    2.4980 hc        1 BUT      0.018694
      6 H2          0.8720   -0.7730    2.4980 hc        1 BUT      0.018694
      7 C3          0.0080    0.8130    1.3070 c3        1 BUT     -0.066421
      8 H3         -0.8690    1.4650    1.3240 hc        1 BUT      0.042686
      9 H4          0.8990    1.4470    1.3240 hc        1 BUT      0.042686
     10 C4          0.0000    0.0000    0.0000 c3        1 BUT     -0.087128
     11 H5         -0.8930   -0.6260   -0.0610 hc        1 BUT      0.009030
     12 H6          0.0070    0.6700   -0.8630 hc        1 BUT      0.009030
     13 H7          0.8800   -0.6440   -0.0610 hc        1 BUT      0.009030
@<TRIPOS>BOND
     1    1    2 1   
     2    1    3 1   
     3    1    4 1   
     4    4    5 1   
     5    4    6 1   
     6    4    7 1   
     7    7    8 1   
     8    7    9 1   
     9    7   10 1   
    10   10   11 1   
    11   10   12 1   
    12   10   13 1   
@<TRIPOS>SUBSTRUCTURE
     1 BUT         1 TEMP              0 ****  ****    0 ROOT
