@<TRIPOS>MOLECULE
COC
   25    25     1     0     0
SMALL
bcc


@<TRIPOS>ATOM
      1 C1          0.0000    0.0000    0.0000 c3        1 COC     -0.075433
      2 H2         -0.8700    0.0510    0.6570 hc        1 COC      0.040182
      3 H3         -0.4090    0.0230   -1.0130 hc        1 COC      0.040182
      4 C2          0.7280   -1.3550    0.1640 c3        1 COC     -0.071931
      5 H4          0.0110   -2.1410   -0.0880 hc        1 COC      0.036184
      6 H5          1.5320   -1.4250   -0.5730 hc        1 COC      0.036184
      7 C3          1.3050   -1.6790    1.5640 c3        1 COC     -0.071431
      8 H6          2.2840   -1.2150    1.6950 hc        1 COC      0.038183
      9 H7          1.4970   -2.7530    1.5880 hc        1 COC      0.038183
     10 C4          0.3730   -1.3340    2.7540 c3        1 COC     -0.089939
     11 H8         -0.6740   -1.3040    2.4420 hc        1 COC      0.049928
     12 H9          0.4460   -2.1620    3.4650 hc        1 COC      0.049928
     13 C5          0.7640   -0.0390    3.5160 c3        1 COC      0.145037
     14 H10         1.8230   -0.1040    3.7870 h1        1 COC      0.028688
     15 C6          0.5280    1.2920    2.7510 c3        1 COC     -0.089939
     16 H11        -0.5150    1.3810    2.4380 hc        1 COC      0.049928
     17 H12         0.6980    2.1090    3.4570 hc        1 COC      0.049928
     18 C7          1.4930    1.5190    1.5610 c3        1 COC     -0.071431
     19 H13         2.4090    0.9440    1.6920 hc        1 COC      0.038183
     20 H14         1.8120    2.5630    1.5790 hc        1 COC      0.038183
     21 C8          0.8810    1.2620    0.1600 c3        1 COC     -0.071931
     22 H15         1.6870    1.2350   -0.5770 hc        1 COC      0.036184
     23 H16         0.2610    2.1240   -0.0940 hc        1 COC      0.036184
     24 O1          0.0000    0.0000    4.7310 oh        1 COC     -0.606064
     25 H1          0.3740    0.7320    5.3030 ho        1 COC      0.396830
@<TRIPOS>BOND
     1    1    2 1   
     2    1    3 1   
     3    1    4 1   
     4    1   21 1   
     5    4    5 1   
     6    4    6 1   
     7    4    7 1   
     8    7    8 1   
     9    7    9 1   
    10    7   10 1   
    11   10   11 1   
    12   10   12 1   
    13   10   13 1   
    14   13   14 1   
    15   13   15 1   
    16   13   24 1   
    17   15   16 1   
    18   15   17 1   
    19   15   18 1   
    20   18   19 1   
    21   18   20 1   
    22   18   21 1   
    23   21   22 1   
    24   21   23 1   
    25   24   25 1   
@<TRIPOS>SUBSTRUCTURE
     1 COC         1 TEMP              0 ****  ****    0 ROOT
