@<TRIPOS>MOLECULE
Cpptraj
   20    19     1     0     0
SMALL
No Charge or Current Charge


@<TRIPOS>ATOM
      1 C1          20.3230    19.6890    31.8880 C.2        1 HP6      -0.257064
      2 H1          21.3390    19.4070    32.1670 H          1 HP6       0.100975
      3 H2          20.1870    20.1350    30.9020 H          1 HP6       0.100975
      4 C2          19.2950    19.5000    32.7070 C.2        1 HP6      -0.140235
      5 H3          18.2900    19.7910    32.4030 H          1 HP6       0.111972
      6 C3          19.4160    18.8850    34.0860 C.3        1 HP6      -0.058215
      7 H4          20.3970    18.4190    34.2090 H          1 HP6       0.046688
      8 H5          18.6660    18.0980    34.1960 H          1 HP6       0.046688
      9 C4          19.2120    19.9430    35.1890 C.3        1 HP6      -0.075419
     10 H6          19.9610    20.7320    35.0790 H          1 HP6       0.028193
     11 H7          18.2280    20.4040    35.0740 H          1 HP6       0.028193
     12 C5          19.3260    19.3170    36.5960 C.3        1 HP6      -0.066417
     13 H8          20.3110    18.8560    36.7120 H          1 HP6       0.044189
     14 H9          18.5780    18.5280    36.7050 H          1 HP6       0.044189
     15 C6          19.1220    20.3750    37.6990 C.3        1 HP6      -0.194449
     16 H10         19.8660    21.1710    37.5840 H          1 HP6       0.019195
     17 H11         18.1400    20.8440    37.5770 H          1 HP6       0.019195
     18 C7          19.2370    19.7420    39.0850 C.2        1 HP6       0.907373
     19 O1          20.3230    19.6890    39.6380 O.co2      1 HP6      -0.853013
     20 O2          18.2400    19.2950    39.6290 O.co2      1 HP6      -0.853013
@<TRIPOS>BOND
     1    18    19 1   
     2    18    20 1   
     3    15    18 1   
     4    12    15 1   
     5     9    12 1   
     6     6     9 1   
     7     4     6 1   
     8     1     4 2   
     9    15    16 1   
    10    15    17 1   
    11    12    13 1   
    12    12    14 1   
    13     9    10 1   
    14     9    11 1   
    15     6     7 1   
    16     6     8 1   
    17     4     5 1   
    18     1     2 1   
    19     1     3 1   
@<TRIPOS>SUBSTRUCTURE
     1 HP6         1 TEMP              0 ****  ****    0 ROOT
