@<TRIPOS>MOLECULE
Cpptraj generated mol2 file.
  126   132     6     0     0
SMALL
USER_CHARGES


@<TRIPOS>ATOM
      1 C1         21.7740   14.6820   33.9640 c3         1 MGO      0.304529
      2 H1         22.7470   14.1560   34.0230 h2         1 MGO      0.090782
      3 O1         21.9470   16.0880   33.5770 os         1 MGO     -0.453070
      4 C2         20.9170   13.9990   32.9030 c3         1 MGO      0.092199
      5 H2         20.7930   12.9400   33.1480 h1         1 MGO      0.102926
      6 O2         21.5560   14.1340   31.6230 oh         1 MGO     -0.586639
      7 HO2        22.1920   14.8640   31.6530 ho         1 MGO      0.425065
      8 C3         19.5670   14.6770   32.7970 c3         1 MGO      0.093211
      9 H3         19.7040   15.6980   32.4310 h1         1 MGO      0.064468
     10 O3         18.7870   13.9110   31.8650 oh         1 MGO     -0.592567
     11 HO3        19.3950   13.6200   31.1720 ho         1 MGO      0.421017
     12 C4         18.8590   14.7060   34.1440 c3         1 MGO      0.127621
     13 H4         18.5550   13.6910   34.4120 h1         1 MGO      0.080661
     14 C5         19.7550   15.3000   35.2460 c3         1 MGO      0.104343
     15 H5         19.9390   16.3460   34.9900 h1         1 MGO      0.068516
     16 O5         21.0660   14.5960   35.2540 os         1 MGO     -0.427383
     17 C6         19.1950   15.3100   36.6760 c3         1 MGO      0.141081
     18 H61        18.6820   16.2550   36.8650 h1         1 MGO      0.057384
     19 H62        20.0090   15.2170   37.4000 h1         1 MGO      0.057384
     20 O6         18.2620   14.2380   36.8670 oh         1 MGO     -0.593555
     21 HO6        17.3840   14.5610   36.6300 ho         1 MGO      0.422027
     22 C1         24.7850   19.1270   33.7120 c3         2 MGO      0.304529
     23 H1         25.7320   19.6990   33.7770 h2         2 MGO      0.090782
     24 O1         23.6440   20.0100   33.4380 os         2 MGO     -0.453070
     25 C2         24.9010   18.1280   32.5660 c3         2 MGO      0.092199
     26 H2         25.7620   17.4730   32.7260 h1         2 MGO      0.102926
     27 O2         25.0530   18.8450   31.3300 oh         2 MGO     -0.586639
     28 HO2        24.7450   19.7560   31.4430 ho         2 MGO      0.425065
     29 C3         23.6300   17.3100   32.4500 c3         2 MGO      0.093211
     30 H3         22.8030   17.9670   32.1660 h1         2 MGO      0.064468
     31 O3         23.8600   16.3250   31.4300 oh         2 MGO     -0.592567
     32 HO3        24.3890   16.7580   30.7440 ho         2 MGO      0.421017
     33 C4         23.3040   16.6110   33.7620 c3         2 MGO      0.127621
     34 H4         24.0380   15.8210   33.9390 h1         2 MGO      0.080661
     35 C5         23.2880   17.5970   34.9450 c3         2 MGO      0.104343
     36 H5         22.4680   18.2980   34.7750 h1         2 MGO      0.068516
     37 O5         24.5560   18.3750   34.9590 os         2 MGO     -0.427383
     38 C6         23.0570   17.0090   36.3440 c3         2 MGO      0.141081
     39 H61        21.9910   17.0240   36.5790 h1         2 MGO      0.057384
     40 H62        23.5760   17.6100   37.0950 h1         2 MGO      0.057384
     41 O6         23.5200   15.6540   36.4120 oh         2 MGO     -0.593555
     42 HO6        22.7880   15.0750   36.1610 ho         2 MGO      0.422027
     43 C1         22.4570   23.9670   33.9270 c3         3 MGO      0.304529
     44 H1         22.4440   25.0640   34.0770 h2         3 MGO      0.090782
     45 O1         21.1100   23.4450   33.6670 os         3 MGO     -0.453070
     46 C2         23.3300   23.6540   32.7170 c3         3 MGO      0.092199
     47 H2         24.3360   24.0560   32.8670 h1         3 MGO      0.102926
     48 O2         22.7400   24.2390   31.5450 oh         3 MGO     -0.586639
     49 HO2        21.8010   24.4200   31.7110 ho         3 MGO      0.425065
     50 C3         23.3920   22.1580   32.4830 c3         3 MGO      0.093211
     51 H3         22.3960   21.7950   32.2110 h1         3 MGO      0.064468
     52 O3         24.3150   21.9420   31.4030 oh         3 MGO     -0.592567
     53 HO3        24.1800   22.6660   30.7780 ho         3 MGO      0.421017
     54 C4         23.8840   21.4260   33.7230 c3         3 MGO      0.127621
     55 H4         24.9430   21.6520   33.8760 h1         3 MGO      0.080661
     56 C5         23.0740   21.8160   34.9740 c3         3 MGO      0.104343
     57 H5         22.0490   21.4720   34.8190 h1         3 MGO      0.068516
     58 O5         23.0410   23.2970   35.1040 os         3 MGO     -0.427383
     59 C6         23.5210   21.2160   36.3140 c3         3 MGO      0.141081
     60 H61        22.9800   20.2860   36.5000 h1         3 MGO      0.057384
     61 H62        23.2950   21.9070   37.1290 h1         3 MGO      0.057384
     62 O6         24.9270   20.9330   36.3030 oh         3 MGO     -0.593555
     63 HO6        25.0460   20.0320   35.9770 ho         3 MGO      0.422027
     64 C1         17.1170   24.3630   34.3910 c3         4 MGO      0.304529
     65 H1         16.1690   24.8880   34.6210 h2         4 MGO      0.090782
     66 O1         16.8780   22.9580   34.0340 os         4 MGO     -0.453070
     67 C2         17.7770   25.0520   33.2020 c3         4 MGO      0.092199
     68 H2         17.9420   26.1090   33.4270 h1         4 MGO      0.102926
     69 O2         16.9270   24.9230   32.0520 oh         4 MGO     -0.586639
     70 HO2        16.3060   24.1910   32.1870 ho         4 MGO      0.425065
     71 C3         19.0890   24.3740   32.8620 c3         4 MGO      0.093211
     72 H3         18.8900   23.3550   32.5190 h1         4 MGO      0.064468
     73 O3         19.6970   25.1440   31.8130 oh         4 MGO     -0.592567
     74 HO3        18.9780   25.4390   31.2360 ho         4 MGO      0.421017
     75 C4         20.0180   24.3390   34.0660 c3         4 MGO      0.127621
     76 H4         20.3640   25.3520   34.2830 h1         4 MGO      0.080661
     77 C5         19.3270   23.7390   35.3030 c3         4 MGO      0.104343
     78 H5         19.1000   22.6950   35.0780 h1         4 MGO      0.068516
     79 O5         18.0380   24.4420   35.5410 os         4 MGO     -0.427383
     80 C6         20.1240   23.7240   36.6160 c3         4 MGO      0.141081
     81 H61        20.6630   22.7780   36.7080 h1         4 MGO      0.057384
     82 H62        19.4480   23.8120   37.4690 h1         4 MGO      0.057384
     83 O6         21.0760   24.7940   36.6470 oh         4 MGO     -0.593555
     84 HO6        21.9010   24.4720   36.2610 ho         4 MGO      0.422027
     85 C1         14.1050   19.9180   34.6440 c3         5 MGO      0.304529
     86 H1         13.1840   19.3450   34.8690 h2         5 MGO      0.090782
     87 O1         15.1820   19.0380   34.1720 os         5 MGO     -0.453070
     88 C2         13.7940   20.9220   33.5390 c3         5 MGO      0.092199
     89 H2         12.9740   21.5760   33.8490 h1         5 MGO      0.102926
     90 O2         13.4300   20.2110   32.3450 oh         5 MGO     -0.586639
     91 HO2        13.7530   19.3000   32.3990 ho         5 MGO      0.425065
     92 C3         15.0250   21.7410   33.2090 c3         5 MGO      0.093211
     93 H3         15.7910   21.0850   32.7830 h1         5 MGO      0.064468
     94 O3         14.6230   22.7310   32.2480 oh         5 MGO     -0.592567
     95 HO3        13.9840   22.3020   31.6630 ho         5 MGO      0.421017
     96 C4         15.5740   22.4340   34.4480 c3         5 MGO      0.127621
     97 H4         14.8820   23.2230   34.7540 h1         5 MGO      0.080661
     98 C5         15.7930   21.4430   35.6060 c3         5 MGO      0.104343
     99 H5         16.5710   20.7430   35.2940 h1         5 MGO      0.068516
    100 O5         14.5470   20.6640   35.8360 os         5 MGO     -0.427383
    101 C6         16.2620   22.0240   36.9470 c3         5 MGO      0.141081
    102 H61        17.3540   22.0080   36.9940 h1         5 MGO      0.057384
    103 H62        15.8810   21.4200   37.7740 h1         5 MGO      0.057384
    104 O6         15.8190   23.3790   37.1010 oh         5 MGO     -0.593555
    105 HO6        16.4960   23.9580   36.7290 ho         5 MGO      0.422027
    106 C1         16.4340   15.0780   34.4290 c3         6 MGO      0.304529
    107 H1         16.4720   13.9790   34.5710 h2         6 MGO      0.090782
    108 O1         17.7160   15.6010   33.9430 os         6 MGO     -0.453070
    109 C2         15.3650   15.3960   33.3900 c3         6 MGO      0.092199
    110 H2         14.4000   14.9920   33.7100 h1         6 MGO      0.102926
    111 O2         15.7440   14.8170   32.1310 oh         6 MGO     -0.586639
    112 HO2        16.6970   14.6360   32.1310 ho         6 MGO      0.425065
    113 C3         15.2640   16.8930   33.1770 c3         6 MGO      0.093211
    114 H3         16.1980   17.2570   32.7390 h1         6 MGO      0.064468
    115 O3         14.1680   17.1140   32.2760 oh         6 MGO     -0.592567
    116 HO3        14.1920   16.3920   31.6320 ho         6 MGO      0.421017
    117 C4         14.9940   17.6180   34.4880 c3         6 MGO      0.127621
    118 H4         13.9770   17.3920   34.8200 h1         6 MGO      0.080661
    119 C5         16.0080   17.2240   35.5770 c3         6 MGO      0.104343
    120 H5         16.9910   17.5680   35.2500 h1         6 MGO      0.068516
    121 O5         16.0610   15.7410   35.6920 os         6 MGO     -0.427383
    122 C6         15.7990   17.8170   36.9780 c3         6 MGO      0.141081
    123 H61        16.3640   18.7470   37.0720 h1         6 MGO      0.057384
    124 H62        16.1620   17.1220   37.7390 h1         6 MGO      0.057384
    125 O6         14.4120   18.0990   37.2110 oh         6 MGO     -0.593555
    126 HO6        14.2380   19.0030   36.9150 ho         6 MGO      0.422027
@<TRIPOS>BOND
    1    17    20 1
    2    14    16 1
    3    14    17 1
    4    12    14 1
    5    12   108 1
    6     8    10 1
    7     8    12 1
    8     4     6 1
    9     4     8 1
   10     3    33 1
   11     1     3 1
   12     1     4 1
   13     1    16 1
   14    38    41 1
   15    35    37 1
   16    35    38 1
   17    33    35 1
   18    29    31 1
   19    29    33 1
   20    25    27 1
   21    25    29 1
   22    24    54 1
   23    22    24 1
   24    22    25 1
   25    22    37 1
   26    59    62 1
   27    56    58 1
   28    56    59 1
   29    54    56 1
   30    50    52 1
   31    50    54 1
   32    46    48 1
   33    46    50 1
   34    45    75 1
   35    43    45 1
   36    43    46 1
   37    43    58 1
   38    80    83 1
   39    77    79 1
   40    77    80 1
   41    75    77 1
   42    71    73 1
   43    71    75 1
   44    67    69 1
   45    67    71 1
   46    66    96 1
   47    64    66 1
   48    64    67 1
   49    64    79 1
   50   101   104 1
   51    98   100 1
   52    98   101 1
   53    96    98 1
   54    92    94 1
   55    92    96 1
   56    88    90 1
   57    88    92 1
   58    87   117 1
   59    85    87 1
   60    85    88 1
   61    85   100 1
   62   122   125 1
   63   119   121 1
   64   119   122 1
   65   117   119 1
   66   113   115 1
   67   113   117 1
   68   109   111 1
   69   109   113 1
   70   106   108 1
   71   106   109 1
   72   106   121 1
   73    20    21 1
   74    17    18 1
   75    17    19 1
   76    14    15 1
   77    12    13 1
   78    10    11 1
   79     8     9 1
   80     6     7 1
   81     4     5 1
   82     1     2 1
   83    41    42 1
   84    38    39 1
   85    38    40 1
   86    35    36 1
   87    33    34 1
   88    31    32 1
   89    29    30 1
   90    27    28 1
   91    25    26 1
   92    22    23 1
   93    62    63 1
   94    59    60 1
   95    59    61 1
   96    56    57 1
   97    54    55 1
   98    52    53 1
   99    50    51 1
  100    48    49 1
  101    46    47 1
  102    43    44 1
  103    83    84 1
  104    80    81 1
  105    80    82 1
  106    77    78 1
  107    75    76 1
  108    73    74 1
  109    71    72 1
  110    69    70 1
  111    67    68 1
  112    64    65 1
  113   104   105 1
  114   101   102 1
  115   101   103 1
  116    98    99 1
  117    96    97 1
  118    94    95 1
  119    92    93 1
  120    90    91 1
  121    88    89 1
  122    85    86 1
  123   125   126 1
  124   122   123 1
  125   122   124 1
  126   119   120 1
  127   117   118 1
  128   115   116 1
  129   113   114 1
  130   111   112 1
  131   109   110 1
  132   106   107 1
@<TRIPOS>SUBSTRUCTURE
      1 MGO               1 ****               0 ****  **** 
      2 MGO              22 ****               0 ****  **** 
      3 MGO              43 ****               0 ****  **** 
      4 MGO              64 ****               0 ****  **** 
      5 MGO              85 ****               0 ****  **** 
      6 MGO             106 ****               0 ****  **** 
