@<TRIPOS>MOLECULE
Cpptraj
  147   154     1     0     0
SMALL
No Charge or Current Charge


@<TRIPOS>ATOM
      1 C1          23.9980    15.4980    34.4490 C.3        1 MGO       0.304529
      2 H1          25.0780    15.2860    34.5790 H          1 MGO       0.090782
      3 O1          23.7630    16.9160    34.1470 O.3        1 MGO      -0.453070
      4 C2          23.4850    14.6560    33.2850 C.3        1 MGO       0.092199
      5 H2          23.7040    13.6010    33.4700 H          1 MGO       0.102926
      6 O2          24.1220    15.0750    32.0660 O.3        1 MGO      -0.586639
      7 HO2         24.5150    15.9560    32.1820 H          1 MGO       0.425065
      8 C3          21.9950    14.8520    33.0960 C.3        1 MGO       0.093211
      9 H3          21.7970    15.8870    32.8010 H          1 MGO       0.064468
     10 O3          21.5880    13.9410    32.0630 O.3        1 MGO      -0.592567
     11 HO3         22.3040    13.9310    31.4130 H          1 MGO       0.421017
     12 C4          21.2550    14.5220    34.3820 C.3        1 MGO       0.127621
     13 H4          21.3670    13.4560    34.5950 H          1 MGO       0.080661
     14 C5          21.7980    15.3420    35.5640 C.3        1 MGO       0.104343
     15 H5          21.6330    16.3980    35.3410 H          1 MGO       0.068516
     16 O5          23.2640    15.1190    35.6720 O.3        1 MGO      -0.427383
     17 C6          21.1520    15.0880    36.9340 C.3        1 MGO       0.141081
     18 H61         20.2970    15.7550    37.0660 H          1 MGO       0.057384
     19 H62         21.8700    15.2970    37.7310 H          1 MGO       0.057384
     20 O6          20.6970    13.7330    37.0390 O.3        1 MGO      -0.593555
     21 HO6         19.7870    13.6950    36.7180 H          1 MGO       0.422027
     22 C1          25.8790    20.5230    34.4490 C.3        2 MGO       0.304529
     23 H1          26.7190    21.2350    34.5770 H          2 MGO       0.090782
     24 O1          24.6230    21.2230    34.1460 O.3        2 MGO      -0.453070
     25 C2          26.2170    19.5970    33.2840 C.3        2 MGO       0.092199
     26 H2          27.1790    19.1110    33.4690 H          2 MGO       0.102926
     27 O2          26.2850    20.3550    32.0650 O.3        2 MGO      -0.586639
     28 HO2         25.8430    21.2120    32.1810 H          2 MGO       0.425065
     29 C3          25.1340    18.5550    33.0970 C.3        2 MGO       0.093211
     30 H3          24.2010    19.0430    32.8010 H          2 MGO       0.064468
     31 O3          25.5930    17.6680    32.0640 O.3        2 MGO      -0.592567
     32 HO3         26.0470    18.2210    31.4120 H          2 MGO       0.421017
     33 C4          24.9300    17.7700    34.3820 C.3        2 MGO       0.127621
     34 H4          25.8350    17.1930    34.5950 H          2 MGO       0.080661
     35 C5          24.6300    18.7050    35.5640 C.3        2 MGO       0.104343
     36 H5          23.7010    19.2360    35.3410 H          2 MGO       0.068516
     37 O5          25.7180    19.7140    35.6720 O.3        2 MGO      -0.427383
     38 C6          24.4250    18.0440    36.9340 C.3        2 MGO       0.141081
     39 H61         23.3710    17.7900    37.0670 H          2 MGO       0.057384
     40 H62         24.7100    18.7350    37.7310 H          2 MGO       0.057384
     41 O6          25.2010    16.8430    37.0400 O.3        2 MGO      -0.593555
     42 HO6         24.6630    16.1070    36.7180 H          2 MGO       0.422027
     43 C1          23.1220    25.1270    34.4480 C.3        3 MGO       0.304529
     44 H1          23.0890    26.2270    34.5770 H          3 MGO       0.090782
     45 O1          21.7920    24.5810    34.1460 O.3        3 MGO      -0.453070
     46 C2          24.0560    24.8140    33.2830 C.3        3 MGO       0.092199
     47 H2          25.0370    25.2620    33.4670 H          3 MGO       0.102926
     48 O2          23.5060    25.3400    32.0650 O.3        3 MGO      -0.586639
     49 HO2         22.5610    25.5280    32.1800 H          3 MGO       0.425065
     50 C3          24.1960    23.3170    33.0950 C.3        3 MGO       0.093211
     51 H3          23.2320    22.8920    32.8010 H          3 MGO       0.064468
     52 O3          25.1760    23.1230    32.0620 O.3        3 MGO      -0.592567
     53 HO3         25.0260    23.8230    31.4110 H          3 MGO       0.421017
     54 C4          24.6840    22.6690    34.3820 C.3        3 MGO       0.127621
     55 H4          25.6990    23.0170    34.5930 H          3 MGO       0.080661
     56 C5          23.7660    23.0170    35.5630 C.3        3 MGO       0.104343
     57 H5          22.7720    22.6210    35.3400 H          3 MGO       0.068516
     58 O5          23.6550    24.4970    35.6710 O.3        3 MGO      -0.427383
     59 C6          24.1550    22.4450    36.9330 C.3        3 MGO       0.141081
     60 H61         23.6970    21.4620    37.0660 H          3 MGO       0.057384
     61 H62         23.7930    23.0990    37.7310 H          3 MGO       0.057384
     62 O6          25.5790    22.3030    37.0390 O.3        3 MGO      -0.593555
     63 HO6         25.8180    21.4230    36.7170 H          3 MGO       0.422027
     64 C1          17.8040    25.8420    34.4500 C.3        4 MGO       0.304529
     65 H1          16.9240    26.5020    34.5780 H          4 MGO       0.090782
     66 O1          17.4020    24.4610    34.1470 O.3        4 MGO      -0.453070
     67 C2          18.6320    26.3770    33.2850 C.3        4 MGO       0.092199
     68 H2          18.8920    27.4230    33.4700 H          4 MGO       0.102926
     69 O2          17.8770    26.2750    32.0650 O.3        4 MGO      -0.586639
     70 HO2         17.1400    25.6540    32.1820 H          4 MGO       0.425065
     71 C3          19.8890    25.5540    33.0960 C.3        4 MGO       0.093211
     72 H3          19.6200    24.5360    32.8010 H          4 MGO       0.064468
     73 O3          20.6510    26.1980    32.0630 O.3        4 MGO      -0.592567
     74 HO3         20.0110    26.5180    31.4130 H          4 MGO       0.421017
     75 C4          20.7000    25.5300    34.3810 C.3        4 MGO       0.127621
     76 H4          21.0600    26.5390    34.5940 H          4 MGO       0.080661
     77 C5          19.8550    25.0280    35.5630 C.3        4 MGO       0.104343
     78 H5          19.5450    24.0050    35.3410 H          4 MGO       0.068516
     79 O5          18.6300    25.8650    35.6720 O.3        4 MGO      -0.427383
     80 C6          20.5470    24.9770    36.9330 C.3        4 MGO       0.141081
     81 H61         21.0290    24.0050    37.0660 H          4 MGO       0.057384
     82 H62         19.8090    25.1000    37.7310 H          4 MGO       0.057384
     83 O6          21.5440    26.0000    37.0390 O.3        4 MGO      -0.593555
     84 HO6         22.3810    25.6400    36.7170 H          4 MGO       0.422027
     85 C1          13.9300    22.1300    34.4500 C.3        5 MGO       0.304529
     86 H1          12.8650    21.8530    34.5790 H          5 MGO       0.090782
     87 O1          14.7580    20.9550    34.1470 O.3        5 MGO      -0.453070
     88 C2          14.0270    23.1110    33.2850 C.3        5 MGO       0.092199
     89 H2          13.3710    23.9670    33.4710 H          5 MGO       0.102926
     90 O2          13.6360    22.4580    32.0670 O.3        5 MGO      -0.586639
     91 HO2         13.6620    21.4940    32.1820 H          5 MGO       0.425065
     92 C3          15.4550    23.5810    33.0970 C.3        5 MGO       0.093211
     93 H3          16.0830    22.7360    32.8020 H          5 MGO       0.064468
     94 O3          15.4260    24.5790    32.0640 O.3        5 MGO      -0.592567
     95 HO3         14.7770    24.2770    31.4130 H          5 MGO       0.421017
     96 C4          15.9780    24.2000    34.3830 C.3        5 MGO       0.127621
     97 H4          15.4150    25.1110    34.5960 H          5 MGO       0.080661
     98 C5          15.8450    23.2250    35.5640 C.3        5 MGO       0.104343
     99 H5          16.4510    22.3450    35.3410 H          5 MGO       0.068516
    100 O5          14.4260    22.7900    35.6730 O.3        5 MGO      -0.427383
    101 C6          16.3160    23.7330    36.9340 C.3        5 MGO       0.141081
    102 H61         17.3760    23.5050    37.0660 H          5 MGO       0.057384
    103 H62         15.7610    23.2340    37.7320 H          5 MGO       0.057384
    104 O6          16.1380    25.1520    37.0400 O.3        5 MGO      -0.593555
    105 HO6         16.9420    25.5810    36.7180 H          5 MGO       0.422027
    106 C1          14.4160    16.7860    34.4490 C.3        6 MGO       0.304529
    107 H1          13.9680    15.7810    34.5770 H          6 MGO       0.090782
    108 O1          15.8510    16.7010    34.1460 O.3        6 MGO      -0.453070
    109 C2          13.7100    17.4740    33.2840 C.3        6 MGO       0.092199
    110 H2          12.6320    17.4960    33.4690 H          6 MGO       0.102926
    111 O2          13.9770    16.7620    32.0650 O.3        6 MGO      -0.586639
    112 HO2         14.7470    16.1810    32.1800 H          6 MGO       0.425065
    113 C3          14.2330    18.8830    33.0960 C.3        6 MGO       0.093211
    114 H3          15.2850    18.8470    32.8010 H          6 MGO       0.064468
    115 O3          13.4350    19.4830    32.0630 O.3        6 MGO      -0.592567
    116 HO3         13.2660    18.7880    31.4120 H          6 MGO       0.421017
    117 C4          14.0750    19.6780    34.3830 C.3        6 MGO       0.127621
    118 H4          13.0110    19.8060    34.5940 H          6 MGO       0.080661
    119 C5          14.7530    18.9660    35.5630 C.3        6 MGO       0.104343
    120 H5          15.8190    18.8910    35.3410 H          6 MGO       0.068516
    121 O5          14.2090    17.5850    35.6720 O.3        6 MGO      -0.427383
    122 C6          14.6490    19.6510    36.9330 C.3        6 MGO       0.141081
    123 H61         15.4890    20.3370    37.0660 H          6 MGO       0.057384
    124 H62         14.6920    18.9040    37.7310 H          6 MGO       0.057384
    125 O6          13.4290    20.3970    37.0390 O.3        6 MGO      -0.593555
    126 HO6         13.5950    21.2930    36.7190 H          6 MGO       0.422027
    127 C1          18.8980    13.8350    34.4490 C.3        7 MGO       0.304529
    128 H1          19.4040    12.8590    34.5770 H          7 MGO       0.090782
    129 O1          19.8580    14.9040    34.1460 O.3        7 MGO      -0.453070
    130 C2          17.9190    13.7110    33.2830 C.3        7 MGO       0.092199
    131 H2          17.2310    12.8820    33.4690 H          7 MGO       0.102926
    132 O2          18.6430    13.4770    32.0650 O.3        7 MGO      -0.586639
    133 HO2         19.5770    13.7170    32.1810 H          7 MGO       0.425065
    134 C3          17.1440    14.9990    33.0960 C.3        7 MGO       0.093211
    135 H3          17.8280    15.8000    32.8000 H          7 MGO       0.064468
    136 O3          16.1770    14.7490    32.0620 O.3        7 MGO      -0.592567
    137 HO3         16.6160    14.1840    31.4120 H          7 MGO       0.421017
    138 C4          16.4230    15.3720    34.3820 C.3        7 MGO       0.127621
    139 H4          15.6600    14.6190    34.5940 H          7 MGO       0.080661
    140 C5          17.4020    15.4570    35.5640 C.3        7 MGO       0.104343
    141 H5          18.1260    16.2450    35.3400 H          7 MGO       0.068516
    142 O5          18.1420    14.1720    35.6710 O.3        7 MGO      -0.427383
    143 C6          16.8020    15.8040    36.9340 C.3        7 MGO       0.141081
    144 H61         16.7890    16.8870    37.0670 H          7 MGO       0.057384
    145 H62         17.4120    15.3720    37.7300 H          7 MGO       0.057384
    146 O6          15.4580    15.3140    37.0390 O.3        7 MGO      -0.593555
    147 HO6         14.8610    16.0020    36.7170 H          7 MGO       0.422027
@<TRIPOS>BOND
     1    17    20 1   
     2    14    16 1   
     3    14    17 1   
     4    12    14 1   
     5    12   129 1   
     6     8    10 1   
     7     8    12 1   
     8     4     6 1   
     9     4     8 1   
    10     3    33 1   
    11     1     3 1   
    12     1     4 1   
    13     1    16 1   
    14    38    41 1   
    15    35    37 1   
    16    35    38 1   
    17    33    35 1   
    18    29    31 1   
    19    29    33 1   
    20    25    27 1   
    21    25    29 1   
    22    24    54 1   
    23    22    24 1   
    24    22    25 1   
    25    22    37 1   
    26    59    62 1   
    27    56    58 1   
    28    56    59 1   
    29    54    56 1   
    30    50    52 1   
    31    50    54 1   
    32    46    48 1   
    33    46    50 1   
    34    45    75 1   
    35    43    45 1   
    36    43    46 1   
    37    43    58 1   
    38    80    83 1   
    39    77    79 1   
    40    77    80 1   
    41    75    77 1   
    42    71    73 1   
    43    71    75 1   
    44    67    69 1   
    45    67    71 1   
    46    66    96 1   
    47    64    66 1   
    48    64    67 1   
    49    64    79 1   
    50   101   104 1   
    51    98   100 1   
    52    98   101 1   
    53    96    98 1   
    54    92    94 1   
    55    92    96 1   
    56    88    90 1   
    57    88    92 1   
    58    87   117 1   
    59    85    87 1   
    60    85    88 1   
    61    85   100 1   
    62   122   125 1   
    63   119   121 1   
    64   119   122 1   
    65   117   119 1   
    66   113   115 1   
    67   113   117 1   
    68   109   111 1   
    69   109   113 1   
    70   108   138 1   
    71   106   108 1   
    72   106   109 1   
    73   106   121 1   
    74   143   146 1   
    75   140   142 1   
    76   140   143 1   
    77   138   140 1   
    78   134   136 1   
    79   134   138 1   
    80   130   132 1   
    81   130   134 1   
    82   127   129 1   
    83   127   130 1   
    84   127   142 1   
    85    20    21 1   
    86    17    18 1   
    87    17    19 1   
    88    14    15 1   
    89    12    13 1   
    90    10    11 1   
    91     8     9 1   
    92     6     7 1   
    93     4     5 1   
    94     1     2 1   
    95    41    42 1   
    96    38    39 1   
    97    38    40 1   
    98    35    36 1   
    99    33    34 1   
   100    31    32 1   
   101    29    30 1   
   102    27    28 1   
   103    25    26 1   
   104    22    23 1   
   105    62    63 1   
   106    59    60 1   
   107    59    61 1   
   108    56    57 1   
   109    54    55 1   
   110    52    53 1   
   111    50    51 1   
   112    48    49 1   
   113    46    47 1   
   114    43    44 1   
   115    83    84 1   
   116    80    81 1   
   117    80    82 1   
   118    77    78 1   
   119    75    76 1   
   120    73    74 1   
   121    71    72 1   
   122    69    70 1   
   123    67    68 1   
   124    64    65 1   
   125   104   105 1   
   126   101   102 1   
   127   101   103 1   
   128    98    99 1   
   129    96    97 1   
   130    94    95 1   
   131    92    93 1   
   132    90    91 1   
   133    88    89 1   
   134    85    86 1   
   135   125   126 1   
   136   122   123 1   
   137   122   124 1   
   138   119   120 1   
   139   117   118 1   
   140   115   116 1   
   141   113   114 1   
   142   111   112 1   
   143   109   110 1   
   144   106   107 1   
   145   146   147 1   
   146   143   144 1   
   147   143   145 1   
   148   140   141 1   
   149   138   139 1   
   150   136   137 1   
   151   134   135 1   
   152   132   133 1   
   153   130   131 1   
   154   127   128 1   
@<TRIPOS>SUBSTRUCTURE
     1 MGO         1 TEMP              0 ****  ****    0 ROOT
