@<TRIPOS>MOLECULE
Cpptraj
   22    22     1     0     0
SMALL
No Charge or Current Charge


@<TRIPOS>ATOM
      1 C1          19.8050    19.9580    33.0820 C.3        1 CHP      -0.075900
      2 H2          20.1420    19.2850    32.2900 H          1 CHP       0.037950
      3 H3          18.9290    20.4800    32.6910 H          1 CHP       0.037950
      4 C2          20.9260    20.9900    33.3420 C.3        1 CHP      -0.075900
      5 H4          21.9000    20.5050    33.2450 H          1 CHP       0.037950
      6 H5          20.8800    21.7380    32.5470 H          1 CHP       0.037950
      7 C3          20.8380    21.7090    34.7070 C.3        1 CHP      -0.072400
      8 H6          19.7990    21.9010    34.9840 H          1 CHP       0.038450
      9 H7          21.3160    22.6860    34.5990 H          1 CHP       0.038450
     10 C4          21.5910    20.9460    35.8230 C.3        1 CHP      -0.107400
     11 H8          22.5990    20.7120    35.4750 H          1 CHP       0.049700
     12 H9          21.7200    21.6200    36.6750 H          1 CHP       0.049700
     13 C5          20.9230    19.6430    36.3250 C.3        1 CHP       0.142100
     14 H10         21.6670    19.1340    36.9490 H          1 CHP       0.066700
     15 C6          20.5110    18.6390    35.2160 C.3        1 CHP      -0.107400
     16 H11         21.3810    18.3700    34.6130 H          1 CHP       0.049700
     17 H12         20.1870    17.7210    35.7100 H          1 CHP       0.049700
     18 C7          19.3570    19.1180    34.2990 C.3        1 CHP      -0.072400
     19 H13         18.8360    18.2370    33.9150 H          1 CHP       0.038450
     20 H14         18.6150    19.6750    34.8740 H          1 CHP       0.038450
     21 O1          19.8050    19.9580    37.1730 O.3        1 CHP      -0.598800
     22 H1          19.1620    20.5050    36.6430 H          1 CHP       0.397000
@<TRIPOS>BOND
     1    15    18 1   
     2    13    15 1   
     3    13    21 1   
     4    10    13 1   
     5     7    10 1   
     6     4     7 1   
     7     1     4 1   
     8     1    18 1   
     9    21    22 1   
    10    18    19 1   
    11    18    20 1   
    12    15    16 1   
    13    15    17 1   
    14    13    14 1   
    15    10    11 1   
    16    10    12 1   
    17     7     8 1   
    18     7     9 1   
    19     4     5 1   
    20     4     6 1   
    21     1     2 1   
    22     1     3 1   
@<TRIPOS>SUBSTRUCTURE
     1 CHP         1 TEMP              0 ****  ****    0 ROOT
