@<TRIPOS>MOLECULE
Cpptraj
  147   154     1     0     0
SMALL
No Charge or Current Charge


@<TRIPOS>ATOM
      1 C1          23.7460    15.0670    33.6970 C.3        1 MGO       0.304529
      2 H1          24.8040    14.7640    33.8260 H          1 MGO       0.090782
      3 O1          23.6320    16.5000    33.3940 O.3        1 MGO      -0.453070
      4 C2          23.1650    14.2710    32.5330 C.3        1 MGO       0.092199
      5 H2          23.2920    13.2000    32.7170 H          1 MGO       0.102926
      6 O2          23.8340    14.6340    31.3140 O.3        1 MGO      -0.586639
      7 HO2         24.3000    15.4790    31.4290 H          1 MGO       0.425065
      8 C3          21.6960    14.5930    32.3430 C.3        1 MGO       0.093211
      9 H3          21.5850    15.6390    32.0490 H          1 MGO       0.064468
     10 O3          21.2130    13.7180    31.3110 O.3        1 MGO      -0.592567
     11 HO3         21.9250    13.6480    30.6610 H          1 MGO       0.421017
     12 C4          20.9310    14.3260    33.6310 C.3        1 MGO       0.127621
     13 H4          20.9520    13.2540    33.8420 H          1 MGO       0.080661
     14 C5          21.5410    15.0960    34.8120 C.3        1 MGO       0.104343
     15 H5          21.4660    16.1630    34.5880 H          1 MGO       0.068516
     16 O5          22.9830    14.7500    34.9200 O.3        1 MGO      -0.427383
     17 C6          20.8760    14.8990    36.1820 C.3        1 MGO       0.141081
     18 H61         20.0800    15.6350    36.3140 H          1 MGO       0.057384
     19 H62         21.6080    15.0460    36.9790 H          1 MGO       0.057384
     20 O6          20.3070    13.5870    36.2870 O.3        1 MGO      -0.593555
     21 HO6         19.3970    13.6260    35.9660 H          1 MGO       0.422027
     22 C1          26.0460    19.9140    33.6960 C.3        2 MGO       0.304529
     23 H1          26.9430    20.5530    33.8240 H          2 MGO       0.090782
     24 O1          24.8540    20.7180    33.3950 O.3        2 MGO      -0.453070
     25 C2          26.3040    18.9630    32.5320 C.3        2 MGO       0.092199
     26 H2          27.2220    18.3970    32.7160 H          2 MGO       0.102926
     27 O2          26.4360    19.7120    31.3140 O.3        2 MGO      -0.586639
     28 HO2         26.0680    20.6030    31.4280 H          2 MGO       0.425065
     29 C3          25.1370    18.0160    32.3440 C.3        2 MGO       0.093211
     30 H3          24.2490    18.5820    32.0490 H          2 MGO       0.064468
     31 O3          25.5190    17.0930    31.3110 O.3        2 MGO      -0.592567
     32 HO3         26.0190    17.6060    30.6600 H          2 MGO       0.421017
     33 C4          24.8670    17.2520    33.6290 C.3        2 MGO       0.127621
     34 H4          25.7190    16.5990    33.8420 H          2 MGO       0.080661
     35 C5          24.6470    18.2080    34.8120 C.3        2 MGO       0.104343
     36 H5          23.7670    18.8150    34.5880 H          2 MGO       0.068516
     37 O5          25.8170    19.1210    34.9190 O.3        2 MGO      -0.427383
     38 C6          24.3870    17.5660    36.1810 C.3        2 MGO       0.141081
     39 H61         23.3150    17.4030    36.3140 H          2 MGO       0.057384
     40 H62         24.7300    18.2310    36.9780 H          2 MGO       0.057384
     41 O6          25.0590    16.3050    36.2870 O.3        2 MGO      -0.593555
     42 HO6         24.4600    15.6170    35.9660 H          2 MGO       0.422027
     43 C1          23.6890    24.7350    33.6950 C.3        3 MGO       0.304529
     44 H1          23.7500    25.8330    33.8250 H          3 MGO       0.090782
     45 O1          22.3170    24.3030    33.3940 O.3        3 MGO      -0.453070
     46 C2          24.5930    24.3430    32.5310 C.3        3 MGO       0.092199
     47 H2          25.6080    24.7080    32.7150 H          3 MGO       0.102926
     48 O2          24.0890    24.9130    31.3130 O.3        3 MGO      -0.586639
     49 HO2         23.1630    25.1820    31.4280 H          3 MGO       0.425065
     50 C3          24.6060    22.8400    32.3430 C.3        3 MGO       0.093211
     51 H3          23.6090    22.4980    32.0490 H          3 MGO       0.064468
     52 O3          25.5650    22.5640    31.3100 O.3        3 MGO      -0.592567
     53 HO3         25.4750    23.2740    30.6590 H          3 MGO       0.421017
     54 C4          25.0370    22.1530    33.6300 C.3        3 MGO       0.127621
     55 H4          26.0770    22.4140    33.8410 H          3 MGO       0.080661
     56 C5          24.1510    22.5780    34.8110 C.3        3 MGO       0.104343
     57 H5          23.1270    22.2680    34.5880 H          3 MGO       0.068516
     58 O5          24.1660    24.0610    34.9190 O.3        3 MGO      -0.427383
     59 C6          24.4910    21.9740    36.1810 C.3        3 MGO       0.141081
     60 H61         23.9520    21.0350    36.3130 H          3 MGO       0.057384
     61 H62         24.1860    22.6560    36.9780 H          3 MGO       0.057384
     62 O6          25.8980    21.7120    36.2860 O.3        3 MGO      -0.593555
     63 HO6         26.0610    20.8160    35.9640 H          3 MGO       0.422027
     64 C1          18.4500    25.8960    33.6980 C.3        4 MGO       0.304529
     65 H1          17.6290    26.6290    33.8260 H          4 MGO       0.090782
     66 O1          17.9330    24.5550    33.3940 O.3        4 MGO      -0.453070
     67 C2          19.3210    26.3610    32.5330 C.3        4 MGO       0.092199
     68 H2          19.6680    27.3800    32.7170 H          4 MGO       0.102926
     69 O2          18.5600    26.3230    31.3130 O.3        4 MGO      -0.586639
     70 HO2         17.7720    25.7650    31.4300 H          4 MGO       0.425065
     71 C3          20.5020    25.4330    32.3440 C.3        4 MGO       0.093211
     72 H3          20.1490    24.4410    32.0490 H          4 MGO       0.064468
     73 O3          21.3170    26.0120    31.3110 O.3        4 MGO      -0.592567
     74 HO3         20.7060    26.3840    30.6600 H          4 MGO       0.421017
     75 C4          21.3090    25.3410    33.6290 C.3        4 MGO       0.127621
     76 H4          21.7540    26.3160    33.8420 H          4 MGO       0.080661
     77 C5          20.4260    24.9130    34.8110 C.3        4 MGO       0.104343
     78 H5          20.0300    23.9200    34.5880 H          4 MGO       0.068516
     79 O5          19.2750    25.8500    34.9190 O.3        4 MGO      -0.427383
     80 C6          21.1090    24.8030    36.1810 C.3        4 MGO       0.141081
     81 H61         21.5080    23.7940    36.3130 H          4 MGO       0.057384
     82 H62         20.3860    24.9870    36.9790 H          4 MGO       0.057384
     83 O6          22.1900    25.7370    36.2860 O.3        4 MGO      -0.593555
     84 HO6         22.9940    25.3090    35.9650 H          4 MGO       0.422027
     85 C1          14.2750    22.5260    33.6970 C.3        5 MGO       0.304529
     86 H1          13.1910    22.3410    33.8270 H          5 MGO       0.090782
     87 O1          15.0010    21.2860    33.3940 O.3        5 MGO      -0.453070
     88 C2          14.4550    23.4960    32.5330 C.3        5 MGO       0.092199
     89 H2          13.8740    24.4040    32.7180 H          5 MGO       0.102926
     90 O2          14.0100    22.8780    31.3150 O.3        5 MGO      -0.586639
     91 HO2         13.9550    21.9150    31.4290 H          5 MGO       0.425065
     92 C3          15.9180    23.8440    32.3450 C.3        5 MGO       0.093211
     93 H3          16.4720    22.9470    32.0500 H          5 MGO       0.064468
     94 O3          15.9740    24.8400    31.3110 O.3        5 MGO      -0.592567
     95 HO3         15.3000    24.5950    30.6610 H          5 MGO       0.421017
     96 C4          16.4920    24.4150    33.6300 C.3        5 MGO       0.127621
     97 H4          16.0080    25.3710    33.8430 H          5 MGO       0.080661
     98 C5          16.2770    23.4560    34.8120 C.3        5 MGO       0.104343
     99 H5          16.8050    22.5270    34.5880 H          5 MGO       0.068516
    100 O5          14.8270    23.1420    34.9200 O.3        5 MGO      -0.427383
    101 C6          16.7890    23.9220    36.1820 C.3        5 MGO       0.141081
    102 H61         17.8260    23.6050    36.3140 H          5 MGO       0.057384
    103 H62         16.1920    23.4720    36.9790 H          5 MGO       0.057384
    104 O6          16.7320    25.3510    36.2880 O.3        5 MGO      -0.593555
    105 HO6         17.5690    25.7100    35.9660 H          5 MGO       0.422027
    106 C1          14.3080    17.1610    33.6970 C.3        6 MGO       0.304529
    107 H1          13.7750    16.1970    33.8260 H          6 MGO       0.090782
    108 O1          15.7300    16.9530    33.3940 O.3        6 MGO      -0.453070
    109 C2          13.6620    17.9070    32.5320 C.3        6 MGO       0.092199
    110 H2          12.5900    18.0180    32.7170 H          6 MGO       0.102926
    111 O2          13.8680    17.1730    31.3130 O.3        6 MGO      -0.586639
    112 HO2         14.5860    16.5300    31.4280 H          6 MGO       0.425065
    113 C3          14.3030    19.2650    32.3430 C.3        6 MGO       0.093211
    114 H3          15.3480    19.1400    32.0490 H          6 MGO       0.064468
    115 O3          13.5590    19.9320    31.3100 O.3        6 MGO      -0.592567
    116 HO3         13.3310    19.2520    30.6590 H          6 MGO       0.421017
    117 C4          14.2120    20.0710    33.6300 C.3        6 MGO       0.127621
    118 H4          13.1630    20.2880    33.8420 H          6 MGO       0.080661
    119 C5          14.8270    19.3040    34.8100 C.3        6 MGO       0.104343
    120 H5          15.8830    19.1400    34.5890 H          6 MGO       0.068516
    121 O5          14.1690    17.9740    34.9190 O.3        6 MGO      -0.427383
    122 C6          14.7810    19.9950    36.1800 C.3        6 MGO       0.141081
    123 H61         15.6770    20.6080    36.3140 H          6 MGO       0.057384
    124 H62         14.7620    19.2470    36.9780 H          6 MGO       0.057384
    125 O6          13.6300    20.8410    36.2870 O.3        6 MGO      -0.593555
    126 HO6         13.8710    21.7210    35.9660 H          6 MGO       0.422027
    127 C1          18.5230    13.8400    33.6960 C.3        7 MGO       0.304529
    128 H1          18.9450    12.8250    33.8250 H          7 MGO       0.090782
    129 O1          19.5700    14.8250    33.3940 O.3        7 MGO      -0.453070
    130 C2          17.5370    13.8000    32.5310 C.3        7 MGO       0.092199
    131 H2          16.7820    13.0320    32.7170 H          7 MGO       0.102926
    132 O2          18.2390    13.5060    31.3130 O.3        7 MGO      -0.586639
    133 HO2         19.1910    13.6650    31.4290 H          7 MGO       0.425065
    134 C3          16.8750    15.1480    32.3440 C.3        7 MGO       0.093211
    135 H3          17.6240    15.8880    32.0480 H          7 MGO       0.064468
    136 O3          15.8900    14.9820    31.3100 O.3        7 MGO      -0.592567
    137 HO3         16.2790    14.3810    30.6600 H          7 MGO       0.421017
    138 C4          16.1880    15.5820    33.6290 C.3        7 MGO       0.127621
    139 H4          15.3640    14.8960    33.8410 H          7 MGO       0.080661
    140 C5          17.1710    15.5840    34.8110 C.3        7 MGO       0.104343
    141 H5          17.9590    16.3070    34.5890 H          7 MGO       0.068516
    142 O5          17.8000    14.2410    34.9180 O.3        7 MGO      -0.427383
    143 C6          16.6010    15.9800    36.1810 C.3        7 MGO       0.141081
    144 H61         16.6810    17.0610    36.3150 H          7 MGO       0.057384
    145 H62         17.1730    15.4980    36.9780 H          7 MGO       0.057384
    146 O6          15.2210    15.6060    36.2870 O.3        7 MGO      -0.593555
    147 HO6         14.6840    16.3410    35.9640 H          7 MGO       0.422027
@<TRIPOS>BOND
     1    17    20 1   
     2    14    16 1   
     3    14    17 1   
     4    12    14 1   
     5    12   129 1   
     6     8    10 1   
     7     8    12 1   
     8     4     6 1   
     9     4     8 1   
    10     3    33 1   
    11     1     3 1   
    12     1     4 1   
    13     1    16 1   
    14    38    41 1   
    15    35    37 1   
    16    35    38 1   
    17    33    35 1   
    18    29    31 1   
    19    29    33 1   
    20    25    27 1   
    21    25    29 1   
    22    24    54 1   
    23    22    24 1   
    24    22    25 1   
    25    22    37 1   
    26    59    62 1   
    27    56    58 1   
    28    56    59 1   
    29    54    56 1   
    30    50    52 1   
    31    50    54 1   
    32    46    48 1   
    33    46    50 1   
    34    45    75 1   
    35    43    45 1   
    36    43    46 1   
    37    43    58 1   
    38    80    83 1   
    39    77    79 1   
    40    77    80 1   
    41    75    77 1   
    42    71    73 1   
    43    71    75 1   
    44    67    69 1   
    45    67    71 1   
    46    66    96 1   
    47    64    66 1   
    48    64    67 1   
    49    64    79 1   
    50   101   104 1   
    51    98   100 1   
    52    98   101 1   
    53    96    98 1   
    54    92    94 1   
    55    92    96 1   
    56    88    90 1   
    57    88    92 1   
    58    87   117 1   
    59    85    87 1   
    60    85    88 1   
    61    85   100 1   
    62   122   125 1   
    63   119   121 1   
    64   119   122 1   
    65   117   119 1   
    66   113   115 1   
    67   113   117 1   
    68   109   111 1   
    69   109   113 1   
    70   108   138 1   
    71   106   108 1   
    72   106   109 1   
    73   106   121 1   
    74   143   146 1   
    75   140   142 1   
    76   140   143 1   
    77   138   140 1   
    78   134   136 1   
    79   134   138 1   
    80   130   132 1   
    81   130   134 1   
    82   127   129 1   
    83   127   130 1   
    84   127   142 1   
    85    20    21 1   
    86    17    18 1   
    87    17    19 1   
    88    14    15 1   
    89    12    13 1   
    90    10    11 1   
    91     8     9 1   
    92     6     7 1   
    93     4     5 1   
    94     1     2 1   
    95    41    42 1   
    96    38    39 1   
    97    38    40 1   
    98    35    36 1   
    99    33    34 1   
   100    31    32 1   
   101    29    30 1   
   102    27    28 1   
   103    25    26 1   
   104    22    23 1   
   105    62    63 1   
   106    59    60 1   
   107    59    61 1   
   108    56    57 1   
   109    54    55 1   
   110    52    53 1   
   111    50    51 1   
   112    48    49 1   
   113    46    47 1   
   114    43    44 1   
   115    83    84 1   
   116    80    81 1   
   117    80    82 1   
   118    77    78 1   
   119    75    76 1   
   120    73    74 1   
   121    71    72 1   
   122    69    70 1   
   123    67    68 1   
   124    64    65 1   
   125   104   105 1   
   126   101   102 1   
   127   101   103 1   
   128    98    99 1   
   129    96    97 1   
   130    94    95 1   
   131    92    93 1   
   132    90    91 1   
   133    88    89 1   
   134    85    86 1   
   135   125   126 1   
   136   122   123 1   
   137   122   124 1   
   138   119   120 1   
   139   117   118 1   
   140   115   116 1   
   141   113   114 1   
   142   111   112 1   
   143   109   110 1   
   144   106   107 1   
   145   146   147 1   
   146   143   144 1   
   147   143   145 1   
   148   140   141 1   
   149   138   139 1   
   150   136   137 1   
   151   134   135 1   
   152   132   133 1   
   153   130   131 1   
   154   127   128 1   
@<TRIPOS>SUBSTRUCTURE
     1 MGO         1 TEMP              0 ****  ****    0 ROOT
