@<TRIPOS>MOLECULE
Cpptraj
  147   154     1     0     0
SMALL
No Charge or Current Charge


@<TRIPOS>ATOM
      1 C1          15.8760    15.3670    33.0670 C.3        1 MGO       0.304529
      2 H1          14.8020    15.1310    32.9380 H          1 MGO       0.090782
      3 O1          16.0800    16.7900    33.3700 O.3        1 MGO      -0.453070
      4 C2          16.4080    14.5370    34.2310 C.3        1 MGO       0.092199
      5 H2          16.2120    13.4770    34.0470 H          1 MGO       0.102926
      6 O2          15.7620    14.9410    35.4510 O.3        1 MGO      -0.586639
      7 HO2         15.3490    15.8130    35.3350 H          1 MGO       0.425065
      8 C3          17.8930    14.7660    34.4200 C.3        1 MGO       0.093211
      9 H3          18.0690    15.8040    34.7150 H          1 MGO       0.064468
     10 O3          18.3200    13.8630    35.4540 O.3        1 MGO      -0.592567
     11 HO3         17.6050    13.8380    36.1040 H          1 MGO       0.421017
     12 C4          18.6400    14.4530    33.1340 C.3        1 MGO       0.127621
     13 H4          18.5520    13.3840    32.9220 H          1 MGO       0.080661
     14 C5          18.0790    15.2590    31.9530 C.3        1 MGO       0.104343
     15 H5          18.2210    16.3200    32.1750 H          1 MGO       0.068516
     16 O5          16.6190    15.0040    31.8440 O.3        1 MGO      -0.427383
     17 C6          18.7300    15.0210    30.5820 C.3        1 MGO       0.141081
     18 H61         19.5710    15.7060    30.4510 H          1 MGO       0.057384
     19 H62         18.0080    15.2130    29.7860 H          1 MGO       0.057384
     20 O6          19.2160    13.6760    30.4770 O.3        1 MGO      -0.593555
     21 HO6         20.1270    13.6580    30.7980 H          1 MGO       0.422027
     22 C1          13.8840    20.3490    33.0680 C.3        2 MGO       0.304529
     23 H1          13.0290    21.0420    32.9400 H          2 MGO       0.090782
     24 O1          15.1240    21.0770    33.3710 O.3        2 MGO      -0.453070
     25 C2          13.5670    19.4150    34.2330 C.3        2 MGO       0.092199
     26 H2          12.6160    18.9080    34.0480 H          2 MGO       0.102926
     27 O2          13.4820    20.1710    35.4510 O.3        2 MGO      -0.586639
     28 HO2         13.9050    21.0380    35.3360 H          2 MGO       0.425065
     29 C3          14.6730    18.3980    34.4200 C.3        2 MGO       0.093211
     30 H3          15.5950    18.9070    34.7150 H          2 MGO       0.064468
     31 O3          14.2340    17.5010    35.4530 O.3        2 MGO      -0.592567
     32 HO3         13.7670    18.0440    36.1050 H          2 MGO       0.421017
     33 C4          14.8940    17.6180    33.1340 C.3        2 MGO       0.127621
     34 H4          14.0030    17.0200    32.9220 H          2 MGO       0.080661
     35 C5          15.1740    18.5590    31.9530 C.3        2 MGO       0.104343
     36 H5          16.0900    19.1100    32.1760 H          2 MGO       0.068516
     37 O5          14.0630    19.5430    31.8450 O.3        2 MGO      -0.427383
     38 C6          15.3930    17.9020    30.5830 C.3        2 MGO       0.141081
     39 H61         16.4520    17.6720    30.4500 H          2 MGO       0.057384
     40 H62         15.0930    18.5870    29.7860 H          2 MGO       0.057384
     41 O6          14.6440    16.6840    30.4770 O.3        2 MGO      -0.593555
     42 HO6         15.1980    15.9610    30.7980 H          2 MGO       0.422027
     43 C1          16.5380    25.0130    33.0690 C.3        3 MGO       0.304529
     44 H1          16.5460    26.1130    32.9400 H          3 MGO       0.090782
     45 O1          17.8800    24.4970    33.3710 O.3        3 MGO      -0.453070
     46 C2          15.6110    24.6790    34.2330 C.3        3 MGO       0.092199
     47 H2          14.6210    25.1050    34.0490 H          3 MGO       0.102926
     48 O2          16.1490    25.2170    35.4520 O.3        3 MGO      -0.586639
     49 HO2         17.0900    25.4270    35.3360 H          3 MGO       0.425065
     50 C3          15.5040    23.1790    34.4210 C.3        3 MGO       0.093211
     51 H3          16.4770    22.7760    34.7160 H          3 MGO       0.064468
     52 O3          14.5290    22.9640    35.4540 O.3        3 MGO      -0.592567
     53 HO3         14.6630    23.6670    36.1060 H          3 MGO       0.421017
     54 C4          15.0310    22.5210    33.1350 C.3        3 MGO       0.127621
     55 H4          14.0090    22.8460    32.9230 H          3 MGO       0.080661
     56 C5          15.9410    22.8890    31.9540 C.3        3 MGO       0.104343
     57 H5          16.9440    22.5160    32.1760 H          3 MGO       0.068516
     58 O5          16.0190    24.3710    31.8460 O.3        3 MGO      -0.427383
     59 C6          15.5640    22.3080    30.5840 C.3        3 MGO       0.141081
     60 H61         16.0440    21.3360    30.4510 H          3 MGO       0.057384
     61 H62         15.9120    22.9700    29.7860 H          3 MGO       0.057384
     62 O6          14.1440    22.1340    30.4780 O.3        3 MGO      -0.593555
     63 HO6         13.9250    21.2500    30.7990 H          3 MGO       0.422027
     64 C1          21.8390    25.8460    33.0670 C.3        4 MGO       0.304529
     65 H1          22.7040    26.5250    32.9390 H          4 MGO       0.090782
     66 O1          22.2710    24.4750    33.3700 O.3        4 MGO      -0.453070
     67 C2          20.9990    26.3630    34.2320 C.3        4 MGO       0.092199
     68 H2          20.7160    27.4030    34.0470 H          4 MGO       0.102926
     69 O2          21.7560    26.2780    35.4510 O.3        4 MGO      -0.586639
     70 HO2         22.5070    25.6730    35.3350 H          4 MGO       0.425065
     71 C3          19.7610    25.5120    34.4200 C.3        4 MGO       0.093211
     72 H3          20.0520    24.5000    34.7160 H          4 MGO       0.064468
     73 O3          18.9840    26.1390    35.4530 O.3        4 MGO      -0.592567
     74 HO3         19.6170    26.4730    36.1040 H          4 MGO       0.421017
     75 C4          18.9500    25.4700    33.1350 C.3        4 MGO       0.127621
     76 H4          18.5670    26.4710    32.9220 H          4 MGO       0.080661
     77 C5          19.8060    24.9870    31.9540 C.3        4 MGO       0.104343
     78 H5          20.1390    23.9710    32.1760 H          4 MGO       0.068516
     79 O5          21.0120    25.8510    31.8450 O.3        4 MGO      -0.427383
     80 C6          19.1160    24.9200    30.5830 C.3        4 MGO       0.141081
     81 H61         18.6560    23.9380    30.4510 H          4 MGO       0.057384
     82 H62         19.8500    25.0600    29.7860 H          4 MGO       0.057384
     83 O6          18.0960    25.9200    30.4780 O.3        4 MGO      -0.593555
     84 HO6         17.2670    25.5420    30.8000 H          4 MGO       0.422027
     85 C1          25.7950    22.2210    33.0670 C.3        5 MGO       0.304529
     86 H1          26.8650    21.9690    32.9370 H          5 MGO       0.090782
     87 O1          24.9930    21.0280    33.3700 O.3        5 MGO      -0.453070
     88 C2          25.6760    23.2000    34.2310 C.3        5 MGO       0.092199
     89 H2          26.3120    24.0700    34.0460 H          5 MGO       0.102926
     90 O2          26.0810    22.5560    35.4500 O.3        5 MGO      -0.586639
     91 HO2         26.0760    21.5920    35.3350 H          5 MGO       0.425065
     92 C3          24.2380    23.6380    34.4190 C.3        5 MGO       0.093211
     93 H3          23.6280    22.7790    34.7150 H          5 MGO       0.064468
     94 O3          24.2440    24.6360    35.4530 O.3        5 MGO      -0.592567
     95 HO3         24.9000    24.3490    36.1030 H          5 MGO       0.421017
     96 C4          23.7010    24.2450    33.1340 C.3        5 MGO       0.127621
     97 H4          24.2440    25.1690    32.9210 H          5 MGO       0.080661
     98 C5          23.8550    23.2740    31.9530 C.3        5 MGO       0.104343
     99 H5          23.2690    22.3800    32.1760 H          5 MGO       0.068516
    100 O5          25.2830    22.8700    31.8440 O.3        5 MGO      -0.427383
    101 C6          23.3730    23.7710    30.5820 C.3        5 MGO       0.141081
    102 H61         22.3180    23.5190    30.4500 H          5 MGO       0.057384
    103 H62         23.9400    23.2850    29.7850 H          5 MGO       0.057384
    104 O6          23.5190    25.1930    30.4760 O.3        5 MGO      -0.593555
    105 HO6         22.7060    25.6050    30.7990 H          5 MGO       0.422027
    106 C1          25.4270    16.8680    33.0680 C.3        6 MGO       0.304529
    107 H1          25.8980    15.8730    32.9400 H          6 MGO       0.090782
    108 O1          23.9950    16.7510    33.3700 O.3        6 MGO      -0.453070
    109 C2          26.1180    17.5720    34.2320 C.3        6 MGO       0.092199
    110 H2          27.1950    17.6170    34.0480 H          6 MGO       0.102926
    111 O2          25.8670    16.8530    35.4510 O.3        6 MGO      -0.586639
    112 HO2         25.1100    16.2560    35.3360 H          6 MGO       0.425065
    113 C3          25.5630    18.9690    34.4210 C.3        6 MGO       0.093211
    114 H3          24.5130    18.9090    34.7160 H          6 MGO       0.064468
    115 O3          26.3480    19.5870    35.4540 O.3        6 MGO      -0.592567
    116 HO3         26.5330    18.8950    36.1050 H          6 MGO       0.421017
    117 C4          25.7040    19.7670    33.1340 C.3        6 MGO       0.127621
    118 H4          26.7650    19.9180    32.9220 H          6 MGO       0.080661
    119 C5          25.0420    19.0400    31.9540 C.3        6 MGO       0.104343
    120 H5          23.9780    18.9420    32.1750 H          6 MGO       0.068516
    121 O5          25.6160    17.6720    31.8450 O.3        6 MGO      -0.427383
    122 C6          25.1310    19.7270    30.5830 C.3        6 MGO       0.141081
    123 H61         24.2760    20.3940    30.4500 H          6 MGO       0.057384
    124 H62         25.1040    18.9800    29.7860 H          6 MGO       0.057384
    125 O6          26.3340    20.5000    30.4770 O.3        6 MGO      -0.593555
    126 HO6         26.1480    21.3920    30.7980 H          6 MGO       0.422027
    127 C1          21.0120    13.8180    33.0680 C.3        7 MGO       0.304529
    128 H1          20.5280    12.8300    32.9390 H          7 MGO       0.090782
    129 O1          20.0290    14.8650    33.3700 O.3        7 MGO      -0.453070
    130 C2          21.9940    13.7160    34.2330 C.3        7 MGO       0.092199
    131 H2          22.7000    12.9020    34.0480 H          7 MGO       0.102926
    132 O2          21.2750    13.4650    35.4510 O.3        7 MGO      -0.586639
    133 HO2         20.3360    13.6840    35.3360 H          7 MGO       0.425065
    134 C3          22.7400    15.0200    34.4210 C.3        7 MGO       0.093211
    135 H3          22.0380    15.8060    34.7160 H          7 MGO       0.064468
    136 O3          23.7120    14.7930    35.4550 O.3        7 MGO      -0.592567
    137 HO3         23.2860    14.2170    36.1050 H          7 MGO       0.421017
    138 C4          23.4520    15.4100    33.1350 C.3        7 MGO       0.127621
    139 H4          24.2320    14.6740    32.9230 H          7 MGO       0.080661
    140 C5          22.4710    15.4730    31.9530 C.3        7 MGO       0.104343
    141 H5          21.7300    16.2440    32.1760 H          7 MGO       0.068516
    142 O5          21.7600    14.1720    31.8460 O.3        7 MGO      -0.427383
    143 C6          23.0640    15.8330    30.5830 C.3        7 MGO       0.141081
    144 H61         23.0530    16.9170    30.4500 H          7 MGO       0.057384
    145 H62         22.4630    15.3880    29.7860 H          7 MGO       0.057384
    146 O6          24.4180    15.3730    30.4780 O.3        7 MGO      -0.593555
    147 HO6         25.0000    16.0740    30.8000 H          7 MGO       0.422027
@<TRIPOS>BOND
     1    17    20 1   
     2    14    16 1   
     3    14    17 1   
     4    12    14 1   
     5    12   129 1   
     6     8    10 1   
     7     8    12 1   
     8     4     6 1   
     9     4     8 1   
    10     3    33 1   
    11     1     3 1   
    12     1     4 1   
    13     1    16 1   
    14    38    41 1   
    15    35    37 1   
    16    35    38 1   
    17    33    35 1   
    18    29    31 1   
    19    29    33 1   
    20    25    27 1   
    21    25    29 1   
    22    24    54 1   
    23    22    24 1   
    24    22    25 1   
    25    22    37 1   
    26    59    62 1   
    27    56    58 1   
    28    56    59 1   
    29    54    56 1   
    30    50    52 1   
    31    50    54 1   
    32    46    48 1   
    33    46    50 1   
    34    45    75 1   
    35    43    45 1   
    36    43    46 1   
    37    43    58 1   
    38    80    83 1   
    39    77    79 1   
    40    77    80 1   
    41    75    77 1   
    42    71    73 1   
    43    71    75 1   
    44    67    69 1   
    45    67    71 1   
    46    66    96 1   
    47    64    66 1   
    48    64    67 1   
    49    64    79 1   
    50   101   104 1   
    51    98   100 1   
    52    98   101 1   
    53    96    98 1   
    54    92    94 1   
    55    92    96 1   
    56    88    90 1   
    57    88    92 1   
    58    87   117 1   
    59    85    87 1   
    60    85    88 1   
    61    85   100 1   
    62   122   125 1   
    63   119   121 1   
    64   119   122 1   
    65   117   119 1   
    66   113   115 1   
    67   113   117 1   
    68   109   111 1   
    69   109   113 1   
    70   108   138 1   
    71   106   108 1   
    72   106   109 1   
    73   106   121 1   
    74   143   146 1   
    75   140   142 1   
    76   140   143 1   
    77   138   140 1   
    78   134   136 1   
    79   134   138 1   
    80   130   132 1   
    81   130   134 1   
    82   127   129 1   
    83   127   130 1   
    84   127   142 1   
    85    20    21 1   
    86    17    18 1   
    87    17    19 1   
    88    14    15 1   
    89    12    13 1   
    90    10    11 1   
    91     8     9 1   
    92     6     7 1   
    93     4     5 1   
    94     1     2 1   
    95    41    42 1   
    96    38    39 1   
    97    38    40 1   
    98    35    36 1   
    99    33    34 1   
   100    31    32 1   
   101    29    30 1   
   102    27    28 1   
   103    25    26 1   
   104    22    23 1   
   105    62    63 1   
   106    59    60 1   
   107    59    61 1   
   108    56    57 1   
   109    54    55 1   
   110    52    53 1   
   111    50    51 1   
   112    48    49 1   
   113    46    47 1   
   114    43    44 1   
   115    83    84 1   
   116    80    81 1   
   117    80    82 1   
   118    77    78 1   
   119    75    76 1   
   120    73    74 1   
   121    71    72 1   
   122    69    70 1   
   123    67    68 1   
   124    64    65 1   
   125   104   105 1   
   126   101   102 1   
   127   101   103 1   
   128    98    99 1   
   129    96    97 1   
   130    94    95 1   
   131    92    93 1   
   132    90    91 1   
   133    88    89 1   
   134    85    86 1   
   135   125   126 1   
   136   122   123 1   
   137   122   124 1   
   138   119   120 1   
   139   117   118 1   
   140   115   116 1   
   141   113   114 1   
   142   111   112 1   
   143   109   110 1   
   144   106   107 1   
   145   146   147 1   
   146   143   144 1   
   147   143   145 1   
   148   140   141 1   
   149   138   139 1   
   150   136   137 1   
   151   134   135 1   
   152   132   133 1   
   153   130   131 1   
   154   127   128 1   
@<TRIPOS>SUBSTRUCTURE
     1 MGO         1 TEMP              0 ****  ****    0 ROOT
