@<TRIPOS>MOLECULE
Cpptraj
   29    28     1     0     0
SMALL
No Charge or Current Charge


@<TRIPOS>ATOM
      1 C1          20.0530    19.9260    30.5830 C.3        1 OAM      -0.095100
      2 H3          19.0200    19.5730    30.5450 H          1 OAM       0.038367
      3 H4          20.2380    20.5400    29.6990 H          1 OAM       0.038367
      4 H5          20.7180    19.0600    30.5450 H          1 OAM       0.038367
      5 C2          20.3000    20.7460    31.8630 C.3        1 OAM      -0.079400
      6 H6          19.6420    21.6180    31.8630 H          1 OAM       0.041700
      7 H7          21.3310    21.1090    31.8630 H          1 OAM       0.041700
      8 C3          20.0450    19.9010    33.1290 C.3        1 OAM      -0.079400
      9 H8          19.0140    19.5370    33.1230 H          1 OAM       0.043700
     10 H9          20.7030    19.0280    33.1230 H          1 OAM       0.043700
     11 C4          20.2940    20.7240    34.4100 C.3        1 OAM      -0.079400
     12 H10         19.6360    21.5960    34.4150 H          1 OAM       0.045700
     13 H11         21.3240    21.0860    34.4150 H          1 OAM       0.045700
     14 C5          20.0390    19.8790    35.6760 C.3        1 OAM      -0.079400
     15 H12         19.0080    19.5150    35.6700 H          1 OAM       0.049700
     16 H13         20.6960    19.0050    35.6700 H          1 OAM       0.049700
     17 C6          20.2870    20.7010    36.9580 C.3        1 OAM      -0.079400
     18 H14         19.6290    21.5750    36.9630 H          1 OAM       0.057700
     19 H15         21.3180    21.0650    36.9630 H          1 OAM       0.057700
     20 C7          20.0320    19.8570    38.2240 C.3        1 OAM      -0.111400
     21 H16         19.0010    19.4950    38.2210 H          1 OAM       0.069700
     22 H17         20.6910    18.9850    38.2210 H          1 OAM       0.069700
     23 C8          20.2840    20.6910    39.4950 C.3        1 OAM       0.098800
     24 H18         19.6190    21.5590    39.5070 H          1 OAM       0.113700
     25 H19         21.3180    21.0460    39.5070 H          1 OAM       0.113700
     26 N1          20.0530    19.9260    40.7790 N.4        1 OAM      -0.839600
     27 H1          19.0820    19.5840    40.8530 H          1 OAM       0.461800
     28 H2          20.2300    20.5140    41.6100 H          1 OAM       0.461800
     29 HN11        20.6730    19.1040    40.8530 H          1 OAM       0.461799
@<TRIPOS>BOND
     1    23    26 1   
     2    20    23 1   
     3    17    20 1   
     4    14    17 1   
     5    11    14 1   
     6     8    11 1   
     7     5     8 1   
     8     1     5 1   
     9    26    27 1   
    10    26    28 1   
    11    26    29 1   
    12    23    24 1   
    13    23    25 1   
    14    20    21 1   
    15    20    22 1   
    16    17    18 1   
    17    17    19 1   
    18    14    15 1   
    19    14    16 1   
    20    11    12 1   
    21    11    13 1   
    22     8     9 1   
    23     8    10 1   
    24     5     6 1   
    25     5     7 1   
    26     1     2 1   
    27     1     3 1   
    28     1     4 1   
@<TRIPOS>SUBSTRUCTURE
     1 OAM         1 TEMP              0 ****  ****    0 ROOT
