@<TRIPOS>MOLECULE
Cpptraj
  126   132     1     0     0
SMALL
No Charge or Current Charge


@<TRIPOS>ATOM
      1 C1          16.3150    14.9270    34.8470 C.3        1 MGO       0.304529
      2 H1          15.2480    14.6870    34.6700 H          1 MGO       0.090782
      3 O1          16.4930    16.3360    35.2190 O.3        1 MGO      -0.453070
      4 C2          16.8210    14.0630    35.9970 C.3        1 MGO       0.092199
      5 H2          16.6750    13.0050    35.7630 H          1 MGO       0.102926
      6 O2          16.1010    14.4030    37.1940 O.3        1 MGO      -0.586639
      7 HO2         15.7000    15.2800    37.0930 H          1 MGO       0.425065
      8 C3          18.2850    14.3460    36.2660 C.3        1 MGO       0.093211
      9 H3          18.3940    15.3750    36.6200 H          1 MGO       0.064468
     10 O3          18.7100    13.4200    37.2790 O.3        1 MGO      -0.592567
     11 HO3         17.9690    13.3260    37.8940 H          1 MGO       0.421017
     12 C4          19.1230    14.1430    35.0120 C.3        1 MGO       0.127621
     13 H4          19.1630    13.0760    34.7760 H          1 MGO       0.080661
     14 C5          18.5600    14.9310    33.8150 C.3        1 MGO       0.104343
     15 H5          18.6430    15.9930    34.0540 H          1 MGO       0.068516
     16 O5          17.1150    14.6150    33.6490 O.3        1 MGO      -0.427383
     17 C6          19.2610    14.7470    32.4620 C.3        1 MGO       0.141081
     18 H61         20.0340    15.5090    32.3410 H          1 MGO       0.057384
     19 H62         18.5420    14.8630    31.6460 H          1 MGO       0.057384
     20 O6          19.8760    13.4550    32.3760 O.3        1 MGO      -0.593555
     21 HO6         20.7770    13.5300    32.7160 H          1 MGO       0.422027
     22 C1          14.6420    20.0340    34.7680 C.3        2 MGO       0.304529
     23 H1          13.9040    20.8430    34.5950 H          2 MGO       0.090782
     24 O1          15.9430    20.5760    35.1800 O.3        2 MGO      -0.453070
     25 C2          14.1240    19.1370    35.8860 C.3        2 MGO       0.092199
     26 H2          13.1390    18.7410    35.6220 H          2 MGO       0.102926
     27 O2          14.0340    19.9010    37.1000 O.3        2 MGO      -0.586639
     28 HO2         14.5940    20.6890    37.0300 H          2 MGO       0.425065
     29 C3          15.0960    18.0050    36.1470 C.3        2 MGO       0.093211
     30 H3          16.0340    18.4160    36.5300 H          2 MGO       0.064468
     31 O3          14.4870    17.1480    37.1270 O.3        2 MGO      -0.592567
     32 HO3         14.0230    17.7280    37.7480 H          2 MGO       0.421017
     33 C4          15.3650    17.2070    34.8780 C.3        2 MGO       0.127621
     34 H4          14.4670    16.6460    34.6110 H          2 MGO       0.080661
     35 C5          15.7890    18.1190    33.7110 C.3        2 MGO       0.104343
     36 H5          16.7460    18.5710    33.9810 H          2 MGO       0.068516
     37 O5          14.7960    19.2150    33.5520 O.3        2 MGO      -0.427383
     38 C6          16.0080    17.4520    32.3450 C.3        2 MGO       0.141081
     39 H61         17.0560    17.1670    32.2380 H          2 MGO       0.057384
     40 H62         15.7650    18.1530    31.5430 H          2 MGO       0.057384
     41 O6          15.1990    16.2760    32.2150 O.3        2 MGO      -0.593555
     42 HO6         15.7090    15.5250    32.5480 H          2 MGO       0.422027
     43 C1          18.2270    24.0390    34.8590 C.3        3 MGO       0.304529
     44 H1          18.5590    25.0850    34.7180 H          3 MGO       0.090782
     45 O1          19.3380    23.1730    35.2730 O.3        3 MGO      -0.453070
     46 C2          17.1680    24.0110    35.9560 C.3        3 MGO       0.092199
     47 H2          16.3370    24.6710    35.6900 H          3 MGO       0.102926
     48 O2          17.7580    24.4420    37.1920 O.3        3 MGO      -0.586639
     49 HO2         18.7220    24.3530    37.1400 H          3 MGO       0.425065
     50 C3          16.6690    22.5970    36.1710 C.3        3 MGO       0.093211
     51 H3          17.4860    21.9810    36.5570 H          3 MGO       0.064468
     52 O3          15.6030    22.6720    37.1330 O.3        3 MGO      -0.592567
     53 HO3         15.8600    23.3480    37.7740 H          3 MGO       0.421017
     54 C4          16.1390    21.9960    34.8770 C.3        3 MGO       0.127621
     55 H4          15.2090    22.5000    34.6020 H          3 MGO       0.080661
     56 C5          17.1640    22.1140    33.7330 C.3        3 MGO       0.104343
     57 H5          18.0280    21.5050    34.0060 H          3 MGO       0.068516
     58 O5          17.6190    23.5240    33.6170 O.3        3 MGO      -0.427383
     59 C6          16.7250    21.6240    32.3460 C.3        3 MGO       0.141081
     60 H61         17.0060    20.5760    32.2190 H          3 MGO       0.057384
     61 H62         17.2260    22.2040    31.5670 H          3 MGO       0.057384
     62 O6          15.3050    21.7390    32.1890 O.3        3 MGO      -0.593555
     63 HO6         14.9040    20.9150    32.4940 H          3 MGO       0.422027
     64 C1          23.4840    22.9360    35.0300 C.3        4 MGO       0.304529
     65 H1          24.5600    23.1740    34.9170 H          4 MGO       0.090782
     66 O1          23.2830    21.5310    35.4050 O.3        4 MGO      -0.453070
     67 C2          22.9080    23.8120    36.1370 C.3        4 MGO       0.092199
     68 H2          23.0690    24.8680    35.9010 H          4 MGO       0.102926
     69 O2          23.5510    23.4850    37.3800 O.3        4 MGO      -0.586639
     70 HO2         23.9570    22.6070    37.3140 H          4 MGO       0.425065
     71 C3          21.4300    23.5310    36.3170 C.3        4 MGO       0.093211
     72 H3          21.2990    22.5060    36.6740 H          4 MGO       0.064468
     73 O3          20.9430    24.4670    37.2910 O.3        4 MGO      -0.592567
     74 HO3         21.6430    24.5680    37.9510 H          4 MGO       0.421017
     75 C4          20.6720    23.7210    35.0110 C.3        4 MGO       0.127621
     76 H4          20.6470    24.7840    34.7610 H          4 MGO       0.080661
     77 C5          21.3090    22.9210    33.8600 C.3        4 MGO       0.104343
     78 H5          21.2100    21.8610    34.1040 H          4 MGO       0.068516
     79 O5          22.7600    23.2350    33.7810 O.3        4 MGO      -0.427383
     80 C6          20.6950    23.0900    32.4630 C.3        4 MGO       0.141081
     81 H61         19.9300    22.3270    32.3020 H          4 MGO       0.057384
     82 H62         21.4620    22.9660    31.6960 H          4 MGO       0.057384
     83 O6          20.0860    24.3810    32.3250 O.3        4 MGO      -0.593555
     84 HO6         19.1650    24.3080    32.6100 H          4 MGO       0.422027
     85 C1          25.1580    17.8290    35.1090 C.3        5 MGO       0.304529
     86 H1          25.9040    17.0190    34.9900 H          5 MGO       0.090782
     87 O1          23.8320    17.2920    35.4440 O.3        5 MGO      -0.453070
     88 C2          25.6050    18.7380    36.2480 C.3        5 MGO       0.092199
     89 H2          26.6040    19.1320    36.0410 H          5 MGO       0.102926
     90 O2          25.6180    17.9870    37.4730 O.3        5 MGO      -0.586639
     91 HO2         25.0640    17.1980    37.3750 H          5 MGO       0.425065
     92 C3          24.6190    19.8730    36.4350 C.3        5 MGO       0.093211
     93 H3          23.6580    19.4650    36.7640 H          5 MGO       0.064468
     94 O3          25.1660    20.7390    37.4430 O.3        5 MGO      -0.592567
     95 HO3         25.5900    20.1660    38.0970 H          5 MGO       0.421017
     96 C4          24.4300    20.6570    35.1440 C.3        5 MGO       0.127621
     97 H4          25.3440    21.2160    34.9280 H          5 MGO       0.080661
     98 C5          24.0800    19.7330    33.9630 C.3        5 MGO       0.104343
     99 H5          23.1080    19.2830    34.1770 H          5 MGO       0.068516
    100 O5          25.0800    18.6360    33.8770 O.3        5 MGO      -0.427383
    101 C6          23.9480    20.3850    32.5790 C.3        5 MGO       0.141081
    102 H61         22.9070    20.6690    32.4040 H          5 MGO       0.057384
    103 H62         24.2390    19.6770    31.8000 H          5 MGO       0.057384
    104 O6          24.7630    21.5600    32.4870 O.3        5 MGO      -0.593555
    105 HO6         24.2340    22.3130    32.7800 H          5 MGO       0.422027
    106 C1          21.5730    13.8240    35.0170 C.3        6 MGO       0.304529
    107 H1          21.2490    12.7760    34.8660 H          6 MGO       0.090782
    108 O1          20.4380    14.6940    35.3520 O.3        6 MGO      -0.453070
    109 C2          22.5610    13.8640    36.1770 C.3        6 MGO       0.092199
    110 H2          23.4070    13.2020    35.9720 H          6 MGO       0.102926
    111 O2          21.8940    13.4460    37.3800 O.3        6 MGO      -0.586639
    112 HO2         20.9350    13.5340    37.2660 H          6 MGO       0.425065
    113 C3          23.0460    15.2800    36.4100 C.3        6 MGO       0.093211
    114 H3          22.2060    15.9000    36.7360 H          6 MGO       0.064468
    115 O3          24.0500    15.2150    37.4360 O.3        6 MGO      -0.592567
    116 HO3         23.7530    14.5460    38.0680 H          6 MGO       0.421017
    117 C4          23.6550    15.8680    35.1440 C.3        6 MGO       0.127621
    118 H4          24.6010    15.3610    34.9340 H          6 MGO       0.080661
    119 C5          22.7050    15.7380    33.9410 C.3        6 MGO       0.104343
    120 H5          21.8240    16.3490    34.1520 H          6 MGO       0.068516
    121 O5          22.2570    14.3250    33.8110 O.3        6 MGO      -0.427383
    122 C6          23.2290    16.2140    32.5780 C.3        6 MGO       0.141081
    123 H61         22.9580    17.2600    32.4230 H          6 MGO       0.057384
    124 H62         22.7780    15.6260    31.7750 H          6 MGO       0.057384
    125 O6          24.6570    16.0970    32.5120 O.3        6 MGO      -0.593555
    126 HO6         25.0390    16.9250    32.8320 H          6 MGO       0.422027
@<TRIPOS>BOND
     1    17    20 1   
     2    14    16 1   
     3    14    17 1   
     4    12    14 1   
     5    12   108 1   
     6     8    10 1   
     7     8    12 1   
     8     4     6 1   
     9     4     8 1   
    10     3    33 1   
    11     1     3 1   
    12     1     4 1   
    13     1    16 1   
    14    38    41 1   
    15    35    37 1   
    16    35    38 1   
    17    33    35 1   
    18    29    31 1   
    19    29    33 1   
    20    25    27 1   
    21    25    29 1   
    22    24    54 1   
    23    22    24 1   
    24    22    25 1   
    25    22    37 1   
    26    59    62 1   
    27    56    58 1   
    28    56    59 1   
    29    54    56 1   
    30    50    52 1   
    31    50    54 1   
    32    46    48 1   
    33    46    50 1   
    34    45    75 1   
    35    43    45 1   
    36    43    46 1   
    37    43    58 1   
    38    80    83 1   
    39    77    79 1   
    40    77    80 1   
    41    75    77 1   
    42    71    73 1   
    43    71    75 1   
    44    67    69 1   
    45    67    71 1   
    46    66    96 1   
    47    64    66 1   
    48    64    67 1   
    49    64    79 1   
    50   101   104 1   
    51    98   100 1   
    52    98   101 1   
    53    96    98 1   
    54    92    94 1   
    55    92    96 1   
    56    88    90 1   
    57    88    92 1   
    58    87   117 1   
    59    85    87 1   
    60    85    88 1   
    61    85   100 1   
    62   122   125 1   
    63   119   121 1   
    64   119   122 1   
    65   117   119 1   
    66   113   115 1   
    67   113   117 1   
    68   109   111 1   
    69   109   113 1   
    70   106   108 1   
    71   106   109 1   
    72   106   121 1   
    73    20    21 1   
    74    17    18 1   
    75    17    19 1   
    76    14    15 1   
    77    12    13 1   
    78    10    11 1   
    79     8     9 1   
    80     6     7 1   
    81     4     5 1   
    82     1     2 1   
    83    41    42 1   
    84    38    39 1   
    85    38    40 1   
    86    35    36 1   
    87    33    34 1   
    88    31    32 1   
    89    29    30 1   
    90    27    28 1   
    91    25    26 1   
    92    22    23 1   
    93    62    63 1   
    94    59    60 1   
    95    59    61 1   
    96    56    57 1   
    97    54    55 1   
    98    52    53 1   
    99    50    51 1   
   100    48    49 1   
   101    46    47 1   
   102    43    44 1   
   103    83    84 1   
   104    80    81 1   
   105    80    82 1   
   106    77    78 1   
   107    75    76 1   
   108    73    74 1   
   109    71    72 1   
   110    69    70 1   
   111    67    68 1   
   112    64    65 1   
   113   104   105 1   
   114   101   102 1   
   115   101   103 1   
   116    98    99 1   
   117    96    97 1   
   118    94    95 1   
   119    92    93 1   
   120    90    91 1   
   121    88    89 1   
   122    85    86 1   
   123   125   126 1   
   124   122   123 1   
   125   122   124 1   
   126   119   120 1   
   127   117   118 1   
   128   115   116 1   
   129   113   114 1   
   130   111   112 1   
   131   109   110 1   
   132   106   107 1   
@<TRIPOS>SUBSTRUCTURE
     1 MGO         1 TEMP              0 ****  ****    0 ROOT
