@<TRIPOS>MOLECULE
Cpptraj
   16    15     1     0     0
SMALL
No Charge or Current Charge


@<TRIPOS>ATOM
      1 C1          20.0030    19.4070    38.2780 C.2        1 PNT       0.907045
      2 O1          20.0570    20.6260    38.2510 O.co2      1 PNT      -0.854322
      3 O2          19.9770    18.8170    39.3450 O.co2      1 PNT      -0.854322
      4 C2          19.9670    18.5860    36.9890 C.3        1 PNT      -0.193518
      5 H1          19.0580    17.9740    36.9800 H          1 PNT       0.018189
      6 H2          20.8170    17.8960    36.9800 H          1 PNT       0.018189
      7 C3          20.0050    19.4440    35.7040 C.3        1 PNT      -0.065440
      8 H3          19.1500    20.1250    35.6910 H          1 PNT       0.043174
      9 H4          20.9160    20.0460    35.6910 H          1 PNT       0.043174
     10 C4          19.9650    18.5580    34.4400 C.3        1 PNT      -0.081450
     11 H5          19.0560    17.9520    34.4430 H          1 PNT       0.024685
     12 H6          20.8180    17.8730    34.4430 H          1 PNT       0.024685
     13 C5          20.0030    19.4070    33.1570 C.3        1 PNT      -0.086153
     14 H7          19.1450    20.0820    33.1160 H          1 PNT       0.018689
     15 H8          19.9740    18.7630    32.2760 H          1 PNT       0.018689
     16 H9          20.9170    20.0040    33.1160 H          1 PNT       0.018686
@<TRIPOS>BOND
     1    10    13 1   
     2     7    10 1   
     3     4     7 1   
     4     1     2 1   
     5     1     3 1   
     6     1     4 1   
     7    13    14 1   
     8    13    15 1   
     9    13    16 1   
    10    10    11 1   
    11    10    12 1   
    12     7     8 1   
    13     7     9 1   
    14     4     5 1   
    15     4     6 1   
@<TRIPOS>SUBSTRUCTURE
     1 PNT         1 TEMP              0 ****  ****    0 ROOT
