@<TRIPOS>MOLECULE
Cpptraj
  147   154     1     0     0
SMALL
No Charge or Current Charge


@<TRIPOS>ATOM
      1 C1          22.6800    14.5150    32.3640 C.3        1 MGO       0.304529
      2 H1          23.6190    13.9430    32.4940 H          1 MGO       0.090782
      3 O1          22.9480    15.9270    32.0620 O.3        1 MGO      -0.453070
      4 C2          21.9080    13.9010    31.2000 C.3        1 MGO       0.092199
      5 H2          21.7490    12.8360    31.3850 H          1 MGO       0.102926
      6 O2          22.6490    14.0750    29.9810 O.3        1 MGO      -0.586639
      7 HO2         23.3220    14.7660    30.0970 H          1 MGO       0.425065
      8 C3          20.5770    14.6000    31.0110 C.3        1 MGO       0.093211
      9 H3          20.7470    15.6390    30.7160 H          1 MGO       0.064468
     10 O3          19.8800    13.8840    29.9780 O.3        1 MGO      -0.592567
     11 HO3         20.5480    13.6280    29.3280 H          1 MGO       0.421017
     12 C4          19.7680    14.5450    32.2970 C.3        1 MGO       0.127621
     13 H4          19.5050    13.5060    32.5100 H          1 MGO       0.080661
     14 C5          20.5600    15.1270    33.4790 C.3        1 MGO       0.104343
     15 H5          20.7700    16.1760    33.2560 H          1 MGO       0.068516
     16 O5          21.8590    14.4120    33.5870 O.3        1 MGO      -0.427383
     17 C6          19.8670    15.1120    34.8490 C.3        1 MGO       0.141081
     18 H61         19.2930    16.0320    34.9810 H          1 MGO       0.057384
     19 H62         20.6120    15.0600    35.6460 H          1 MGO       0.057384
     20 O6          18.9720    13.9970    34.9540 O.3        1 MGO      -0.593555
     21 HO6         18.1040    14.2760    34.6330 H          1 MGO       0.422027
     22 C1          26.1780    18.5830    32.3640 C.3        2 MGO       0.304529
     23 H1          27.2120    18.9610    32.4920 H          2 MGO       0.090782
     24 O1          25.2410    19.6730    32.0610 O.3        2 MGO      -0.453070
     25 C2          26.1760    17.5960    31.1990 C.3        2 MGO       0.092199
     26 H2          26.9110    16.8080    31.3840 H          2 MGO       0.102926
     27 O2          26.5010    18.2840    29.9800 O.3        2 MGO      -0.586639
     28 HO2         26.3820    19.2410    30.0960 H          2 MGO       0.425065
     29 C3          24.8000    16.9920    31.0120 C.3        2 MGO       0.093211
     30 H3          24.0930    17.7720    30.7160 H          2 MGO       0.064468
     31 O3          24.9250    16.0010    29.9790 O.3        2 MGO      -0.592567
     32 HO3         25.5420    16.3640    29.3270 H          2 MGO       0.421017
     33 C4          24.3380    16.3260    32.2970 C.3        2 MGO       0.127621
     34 H4          24.9880    15.4720    32.5100 H          2 MGO       0.080661
     35 C5          24.3780    17.3070    33.4790 C.3        2 MGO       0.104343
     36 H5          23.6900    18.1250    33.2560 H          2 MGO       0.068516
     37 O5          25.7470    17.8780    33.5870 O.3        2 MGO      -0.427383
     38 C6          23.9580    16.7570    34.8490 C.3        2 MGO       0.141081
     39 H61         22.8810    16.8820    34.9820 H          2 MGO       0.057384
     40 H62         24.4640    17.3070    35.6460 H          2 MGO       0.057384
     41 O6          24.2720    15.3620    34.9550 O.3        2 MGO      -0.593555
     42 HO6         23.5130    14.8570    34.6330 H          2 MGO       0.422027
     43 C1          25.1790    23.8550    32.3630 C.3        3 MGO       0.304529
     44 H1          25.5270    24.8980    32.4920 H          3 MGO       0.090782
     45 O1          23.7420    23.8010    32.0610 O.3        3 MGO      -0.453070
     46 C2          25.9480    23.2380    31.1980 C.3        3 MGO       0.092199
     47 H2          27.0220    23.3210    31.3820 H          3 MGO       0.102926
     48 O2          25.6130    23.9220    29.9800 O.3        3 MGO      -0.586639
     49 HO2         24.7910    24.4250    30.0950 H          3 MGO       0.425065
     50 C3          25.5630    21.7850    31.0100 C.3        3 MGO       0.093211
     51 H3          24.5120    21.7190    30.7160 H          3 MGO       0.064468
     52 O3          26.4150    21.2650    29.9770 O.3        3 MGO      -0.592567
     53 HO3         26.5160    21.9740    29.3260 H          3 MGO       0.421017
     54 C4          25.7970    21.0090    32.2970 C.3        3 MGO       0.127621
     55 H4          26.8690    20.9850    32.5080 H          3 MGO       0.080661
     56 C5          25.0550    21.6520    33.4780 C.3        3 MGO       0.104343
     57 H5          23.9860    21.6240    33.2550 H          3 MGO       0.068516
     58 O5          25.4620    23.0790    33.5860 O.3        3 MGO      -0.427383
     59 C6          25.2230    20.9800    34.8480 C.3        3 MGO       0.141081
     60 H61         24.4540    20.2170    34.9810 H          3 MGO       0.057384
     61 H62         25.1090    21.7190    35.6460 H          3 MGO       0.057384
     62 O6          26.5100    20.3560    34.9540 O.3        3 MGO      -0.593555
     63 HO6         26.4310    19.4480    34.6320 H          3 MGO       0.422027
     64 C1          20.4330    26.3600    32.3650 C.3        4 MGO       0.304529
     65 H1          19.8360    27.2830    32.4930 H          4 MGO       0.090782
     66 O1          19.5810    25.2030    32.0620 O.3        4 MGO      -0.453070
     67 C2          21.3960    26.5770    31.2000 C.3        4 MGO       0.092199
     68 H2          22.0010    27.4690    31.3850 H          4 MGO       0.102926
     69 O2          20.6520    26.7420    29.9800 O.3        4 MGO      -0.586639
     70 HO2         19.7460    26.4130    30.0970 H          4 MGO       0.425065
     71 C3          22.2910    25.3710    31.0110 C.3        4 MGO       0.093211
     72 H3          21.6880    24.5080    30.7160 H          4 MGO       0.064468
     73 O3          23.2290    25.7120    29.9780 O.3        4 MGO      -0.592567
     74 HO3         22.7390    26.2340    29.3280 H          4 MGO       0.421017
     75 C4          23.0440    25.0680    32.2960 C.3        4 MGO       0.127621
     76 H4          23.7310    25.8920    32.5090 H          4 MGO       0.080661
     77 C5          22.0790    24.8890    33.4780 C.3        4 MGO       0.104343
     78 H5          21.4340    24.0350    33.2560 H          4 MGO       0.068516
     79 O5          21.2170    26.0970    33.5870 O.3        4 MGO      -0.427383
     80 C6          22.7100    24.6020    34.8480 C.3        4 MGO       0.141081
     81 H61         22.8270    23.5240    34.9810 H          4 MGO       0.057384
     82 H62         22.0600    24.9720    35.6460 H          4 MGO       0.057384
     83 O6          23.9990    25.2180    34.9540 O.3        4 MGO      -0.593555
     84 HO6         24.6610    24.5920    34.6320 H          4 MGO       0.422027
     85 C1          15.5170    24.2130    32.3650 C.3        5 MGO       0.304529
     86 H1          14.4220    24.3210    32.4940 H          5 MGO       0.090782
     87 O1          15.8890    22.8250    32.0620 O.3        5 MGO      -0.453070
     88 C2          15.9460    25.1000    31.2000 C.3        5 MGO       0.092199
     89 H2          15.6260    26.1290    31.3860 H          5 MGO       0.102926
     90 O2          15.3540    24.6220    29.9820 O.3        5 MGO      -0.586639
     91 HO2         15.0470    23.7090    30.0970 H          5 MGO       0.425065
     92 C3          17.4490    25.0490    31.0120 C.3        5 MGO       0.093211
     93 H3          17.7470    24.0380    30.7170 H          5 MGO       0.064468
     94 O3          17.7660    25.9950    29.9790 O.3        5 MGO      -0.592567
     95 HO3         17.0530    25.9360    29.3280 H          5 MGO       0.421017
     96 C4          18.1540    25.4490    32.2980 C.3        5 MGO       0.127621
     97 H4          17.9390    26.4990    32.5110 H          5 MGO       0.080661
     98 C5          17.6930    24.5800    33.4790 C.3        5 MGO       0.104343
     99 H5          17.9570    23.5450    33.2560 H          5 MGO       0.068516
    100 O5          16.2110    24.6610    33.5880 O.3        5 MGO      -0.427383
    101 C6          18.3100    24.8940    34.8490 C.3        5 MGO       0.141081
    102 H61         19.2260    24.3140    34.9810 H          5 MGO       0.057384
    103 H62         17.6160    24.6180    35.6470 H          5 MGO       0.057384
    104 O6          18.6320    26.2870    34.9550 O.3        5 MGO      -0.593555
    105 HO6         19.5350    26.4130    34.6330 H          5 MGO       0.422027
    106 C1          14.1300    19.0290    32.3640 C.3        6 MGO       0.304529
    107 H1          13.3620    18.2410    32.4920 H          6 MGO       0.090782
    108 O1          15.4470    18.4540    32.0610 O.3        6 MGO      -0.453070
    109 C2          13.7040    19.9190    31.1990 C.3        6 MGO       0.092199
    110 H2          12.7000    20.3110    31.3840 H          6 MGO       0.102926
    111 O2          13.7090    19.1580    29.9800 O.3        6 MGO      -0.586639
    112 HO2         14.2310    18.3480    30.0950 H          6 MGO       0.425065
    113 C3          14.6820    21.0610    31.0110 C.3        6 MGO       0.093211
    114 H3          15.6560    20.6640    30.7160 H          6 MGO       0.064468
    115 O3          14.1400    21.8990    29.9780 O.3        6 MGO      -0.592567
    116 HO3         13.7410    21.3050    29.3270 H          6 MGO       0.421017
    117 C4          14.8070    21.8610    32.2980 C.3        6 MGO       0.127621
    118 H4          13.8530    22.3480    32.5090 H          6 MGO       0.080661
    119 C5          15.1980    20.9590    33.4780 C.3        6 MGO       0.104343
    120 H5          16.1730    20.5210    33.2560 H          6 MGO       0.068516
    121 O5          14.2110    19.8510    33.5870 O.3        6 MGO      -0.427383
    122 C6          15.3370    21.6380    34.8480 C.3        6 MGO       0.141081
    123 H61         16.3610    21.9920    34.9810 H          6 MGO       0.057384
    124 H62         15.1200    20.9220    35.6460 H          6 MGO       0.057384
    125 O6          14.4490    22.7590    34.9540 O.3        6 MGO      -0.593555
    126 HO6         14.9140    23.5430    34.6340 H          6 MGO       0.422027
    127 C1          17.3180    14.7130    32.3640 C.3        7 MGO       0.304529
    128 H1          17.4570    13.6220    32.4920 H          7 MGO       0.090782
    129 O1          18.5880    15.3850    32.0610 O.3        7 MGO      -0.453070
    130 C2          16.3570    14.9350    31.1980 C.3        7 MGO       0.092199
    131 H2          15.4250    14.3940    31.3840 H          7 MGO       0.102926
    132 O2          16.9560    14.4650    29.9800 O.3        7 MGO      -0.586639
    133 HO2         17.9150    14.3680    30.0960 H          7 MGO       0.425065
    134 C3          16.0730    16.4110    31.0110 C.3        7 MGO       0.093211
    135 H3          16.9920    16.9260    30.7150 H          7 MGO       0.064468
    136 O3          15.0800    16.5100    29.9770 O.3        7 MGO      -0.592567
    137 HO3         15.2970    15.8280    29.3270 H          7 MGO       0.421017
    138 C4          15.5260    17.0100    32.2970 C.3        7 MGO       0.127621
    139 H4          14.5500    16.5660    32.5090 H          7 MGO       0.080661
    140 C5          16.4740    16.7520    33.4790 C.3        7 MGO       0.104343
    141 H5          17.4250    17.2410    33.2550 H          7 MGO       0.068516
    142 O5          16.7260    15.2900    33.5860 O.3        7 MGO      -0.427383
    143 C6          16.0300    17.2840    34.8490 C.3        7 MGO       0.141081
    144 H61         16.3920    18.3060    34.9820 H          7 MGO       0.057384
    145 H62         16.4540    16.6680    35.6450 H          7 MGO       0.057384
    146 O6          14.6000    17.2880    34.9540 O.3        7 MGO      -0.593555
    147 HO6         14.2770    18.1400    34.6320 H          7 MGO       0.422027
@<TRIPOS>BOND
     1    17    20 1   
     2    14    16 1   
     3    14    17 1   
     4    12    14 1   
     5    12   129 1   
     6     8    10 1   
     7     8    12 1   
     8     4     6 1   
     9     4     8 1   
    10     3    33 1   
    11     1     3 1   
    12     1     4 1   
    13     1    16 1   
    14    38    41 1   
    15    35    37 1   
    16    35    38 1   
    17    33    35 1   
    18    29    31 1   
    19    29    33 1   
    20    25    27 1   
    21    25    29 1   
    22    24    54 1   
    23    22    24 1   
    24    22    25 1   
    25    22    37 1   
    26    59    62 1   
    27    56    58 1   
    28    56    59 1   
    29    54    56 1   
    30    50    52 1   
    31    50    54 1   
    32    46    48 1   
    33    46    50 1   
    34    45    75 1   
    35    43    45 1   
    36    43    46 1   
    37    43    58 1   
    38    80    83 1   
    39    77    79 1   
    40    77    80 1   
    41    75    77 1   
    42    71    73 1   
    43    71    75 1   
    44    67    69 1   
    45    67    71 1   
    46    66    96 1   
    47    64    66 1   
    48    64    67 1   
    49    64    79 1   
    50   101   104 1   
    51    98   100 1   
    52    98   101 1   
    53    96    98 1   
    54    92    94 1   
    55    92    96 1   
    56    88    90 1   
    57    88    92 1   
    58    87   117 1   
    59    85    87 1   
    60    85    88 1   
    61    85   100 1   
    62   122   125 1   
    63   119   121 1   
    64   119   122 1   
    65   117   119 1   
    66   113   115 1   
    67   113   117 1   
    68   109   111 1   
    69   109   113 1   
    70   108   138 1   
    71   106   108 1   
    72   106   109 1   
    73   106   121 1   
    74   143   146 1   
    75   140   142 1   
    76   140   143 1   
    77   138   140 1   
    78   134   136 1   
    79   134   138 1   
    80   130   132 1   
    81   130   134 1   
    82   127   129 1   
    83   127   130 1   
    84   127   142 1   
    85    20    21 1   
    86    17    18 1   
    87    17    19 1   
    88    14    15 1   
    89    12    13 1   
    90    10    11 1   
    91     8     9 1   
    92     6     7 1   
    93     4     5 1   
    94     1     2 1   
    95    41    42 1   
    96    38    39 1   
    97    38    40 1   
    98    35    36 1   
    99    33    34 1   
   100    31    32 1   
   101    29    30 1   
   102    27    28 1   
   103    25    26 1   
   104    22    23 1   
   105    62    63 1   
   106    59    60 1   
   107    59    61 1   
   108    56    57 1   
   109    54    55 1   
   110    52    53 1   
   111    50    51 1   
   112    48    49 1   
   113    46    47 1   
   114    43    44 1   
   115    83    84 1   
   116    80    81 1   
   117    80    82 1   
   118    77    78 1   
   119    75    76 1   
   120    73    74 1   
   121    71    72 1   
   122    69    70 1   
   123    67    68 1   
   124    64    65 1   
   125   104   105 1   
   126   101   102 1   
   127   101   103 1   
   128    98    99 1   
   129    96    97 1   
   130    94    95 1   
   131    92    93 1   
   132    90    91 1   
   133    88    89 1   
   134    85    86 1   
   135   125   126 1   
   136   122   123 1   
   137   122   124 1   
   138   119   120 1   
   139   117   118 1   
   140   115   116 1   
   141   113   114 1   
   142   111   112 1   
   143   109   110 1   
   144   106   107 1   
   145   146   147 1   
   146   143   144 1   
   147   143   145 1   
   148   140   141 1   
   149   138   139 1   
   150   136   137 1   
   151   134   135 1   
   152   132   133 1   
   153   130   131 1   
   154   127   128 1   
@<TRIPOS>SUBSTRUCTURE
     1 MGO         1 TEMP              0 ****  ****    0 ROOT
