@<TRIPOS>MOLECULE
Cpptraj generated mol2 file.
   29    28     1     0     0
SMALL
USER_CHARGES


@<TRIPOS>ATOM
      1 C1         20.2050   20.1810   29.9780 c3         1 OAM     -0.095100
      2 H3         19.3420   19.5120   29.9400 hc         1 OAM      0.038367
      3 H4         20.1810   20.8220   29.0940 hc         1 OAM      0.038367
      4 H5         21.1150   19.5770   29.9400 hc         1 OAM      0.038367
      5 C2         20.1730   21.0370   31.2580 c3         1 OAM     -0.079400
      6 H6         19.2680   21.6490   31.2580 hc         1 OAM      0.041700
      7 H7         21.0310   21.7140   31.2580 hc         1 OAM      0.041700
      8 C3         20.2060   20.1550   32.5240 c3         1 OAM     -0.079400
      9 H8         19.3480   19.4770   32.5180 hc         1 OAM      0.043700
     10 H9         21.1110   19.5420   32.5180 hc         1 OAM      0.043700
     11 C4         20.1740   21.0140   33.8050 c3         1 OAM     -0.079400
     12 H10        19.2690   21.6260   33.8100 hc         1 OAM      0.045700
     13 H11        21.0320   21.6910   33.8100 hc         1 OAM      0.045700
     14 C5         20.2070   20.1320   35.0710 c3         1 OAM     -0.079400
     15 H12        19.3490   19.4540   35.0650 hc         1 OAM      0.049700
     16 H13        21.1120   19.5190   35.0650 hc         1 OAM      0.049700
     17 C6         20.1750   20.9900   36.3530 c3         1 OAM     -0.079400
     18 H14        19.2700   21.6030   36.3580 hc         1 OAM      0.057700
     19 H15        21.0330   21.6680   36.3580 hc         1 OAM      0.057700
     20 C7         20.2080   20.1090   37.6190 c3         1 OAM     -0.111400
     21 H16        19.3490   19.4320   37.6160 hc         1 OAM      0.069700
     22 H17        21.1140   19.4970   37.6160 hc         1 OAM      0.069700
     23 C8         20.1760   20.9790   38.8900 c3         1 OAM      0.098800
     24 H18        19.2660   21.5850   38.9020 hx         1 OAM      0.113700
     25 H19        21.0380   21.6500   38.9020 hx         1 OAM      0.113700
     26 N1         20.2050   20.1810   40.1740 n4         1 OAM     -0.839600
     27 H1         19.3970   19.5430   40.2480 hn         1 OAM      0.461800
     28 H2         20.1820   20.7950   41.0050 hn         1 OAM      0.461800
     29 HN11       21.0580   19.6040   40.2480 hn         1 OAM      0.461799
@<TRIPOS>BOND
    1    23    26 1
    2    20    23 1
    3    17    20 1
    4    14    17 1
    5    11    14 1
    6     8    11 1
    7     5     8 1
    8     1     5 1
    9    26    27 1
   10    26    28 1
   11    26    29 1
   12    23    24 1
   13    23    25 1
   14    20    21 1
   15    20    22 1
   16    17    18 1
   17    17    19 1
   18    14    15 1
   19    14    16 1
   20    11    12 1
   21    11    13 1
   22     8     9 1
   23     8    10 1
   24     5     6 1
   25     5     7 1
   26     1     2 1
   27     1     3 1
   28     1     4 1
@<TRIPOS>SUBSTRUCTURE
      1 OAM               1 ****               0 ****  **** 
