@<TRIPOS>MOLECULE
Cpptraj generated mol2 file.
  126   132     6     0     0
SMALL
USER_CHARGES


@<TRIPOS>ATOM
      1 C1         24.1030   16.9770   33.7030 c3         1 MGO      0.304529
      2 H1         25.1950   17.1150   33.8300 h2         1 MGO      0.090782
      3 O1         23.4460   18.2300   33.3110 os         1 MGO     -0.453070
      4 C2         23.8690   15.9520   32.5980 c3         1 MGO      0.092199
      5 H2         24.3730   15.0130   32.8470 h1         1 MGO      0.102926
      6 O2         24.3830   16.4690   31.3590 oh         1 MGO     -0.586639
      7 HO2        24.4700   17.4330   31.4220 ho         1 MGO      0.425065
      8 C3         22.3860   15.7190   32.3990 c3         1 MGO      0.093211
      9 H3         21.9230   16.6380   32.0300 h1         1 MGO      0.064468
     10 O3         22.2560   14.6680   31.4290 oh         1 MGO     -0.592567
     11 HO3        22.9580   14.8050   30.7780 ho         1 MGO      0.421017
     12 C4         21.7170   15.2930   33.6980 c3         1 MGO      0.127621
     13 H4         22.0490   14.2840   33.9580 h1         1 MGO      0.080661
     14 C5         22.0320   16.2670   34.8480 c3         1 MGO      0.104343
     15 H5         21.5870   17.2300   34.5920 h1         1 MGO      0.068516
     16 O5         23.5050   16.4590   34.9470 os         1 MGO     -0.427383
     17 C6         21.4900   15.9090   36.2390 c3         1 MGO      0.141081
     18 H61        20.5120   16.3720   36.3840 h1         1 MGO      0.057384
     19 H62        22.1610   16.2880   37.0140 h1         1 MGO      0.057384
     20 O6         21.3490   14.4890   36.3820 oh         1 MGO     -0.593555
     21 HO6        20.4620   14.2460   36.0870 ho         1 MGO      0.422027
     22 C1         23.9640   22.3490   33.5910 c3         2 MGO      0.304529
     23 H1         24.3940   23.3630   33.7100 h2         2 MGO      0.090782
     24 O1         22.5400   22.4080   33.2360 os         2 MGO     -0.453070
     25 C2         24.7070   21.6370   32.4670 c3         2 MGO      0.092199
     26 H2         25.7770   21.6030   32.6890 h1         2 MGO      0.102926
     27 O2         24.4840   22.3420   31.2350 oh         2 MGO     -0.586639
     28 HO2        23.6960   22.8990   31.3170 ho         2 MGO      0.425065
     29 C3         24.1610   20.2350   32.2800 c3         2 MGO      0.093211
     30 H3         23.1250   20.2950   31.9360 h1         2 MGO      0.064468
     31 O3         24.9820   19.5970   31.2870 oh         2 MGO     -0.592567
     32 HO3        25.1980   20.2760   30.6320 ho         2 MGO      0.421017
     33 C4         24.2290   19.4410   33.5760 c3         2 MGO      0.127621
     34 H4         25.2740   19.2220   33.8090 h1         2 MGO      0.080661
     35 C5         23.5720   20.2000   34.7440 c3         2 MGO      0.104343
     36 H5         22.5090   20.2960   34.5150 h1         2 MGO      0.068516
     37 O5         24.1440   21.5700   34.8300 os         2 MGO     -0.427383
     38 C6         23.6470   19.5490   36.1330 c3         2 MGO      0.141081
     39 H61        22.7610   18.9330   36.3000 h1         2 MGO      0.057384
     40 H62        23.6730   20.3190   36.9080 h1         2 MGO      0.057384
     41 O6         24.8080   18.7170   36.2460 oh         2 MGO     -0.593555
     42 HO6        24.5680   17.8270   35.9550 ho         2 MGO      0.422027
     43 C1         19.2410   24.9160   33.6020 c3         3 MGO      0.304529
     44 H1         18.5820   25.7960   33.7380 h2         3 MGO      0.090782
     45 O1         18.4700   23.7140   33.2640 os         3 MGO     -0.453070
     46 C2         20.2020   25.2040   32.4530 c3         3 MGO      0.092199
     47 H2         20.7730   26.1130   32.6620 h1         3 MGO      0.102926
     48 O2         19.4500   25.3670   31.2400 oh         3 MGO     -0.586639
     49 HO2        18.5750   24.9630   31.3440 ho         3 MGO      0.425065
     50 C3         21.1380   24.0320   32.2410 c3         3 MGO      0.093211
     51 H3         20.5590   23.1640   31.9110 h1         3 MGO      0.064468
     52 O3         22.0750   24.4250   31.2250 oh         3 MGO     -0.592567
     53 HO3        21.5800   24.9520   30.5840 ho         3 MGO      0.421017
     54 C4         21.8910   23.6910   33.5190 c3         3 MGO      0.127621
     55 H4         22.6080   24.4870   33.7360 h1         3 MGO      0.080661
     56 C5         20.9350   23.5000   34.7110 c3         3 MGO      0.104343
     57 H5         20.3150   22.6280   34.4950 h1         3 MGO      0.068516
     58 O5         20.0370   24.6810   34.8210 os         3 MGO     -0.427383
     59 C6         21.5690   23.2370   36.0840 c3         3 MGO      0.141081
     60 H61        21.6630   22.1610   36.2460 h1         3 MGO      0.057384
     61 H62        20.9360   23.6440   36.8750 h1         3 MGO      0.057384
     62 O6         22.8740   23.8270   36.1650 oh         3 MGO     -0.593555
     63 HO6        23.5160   23.1730   35.8570 ho         3 MGO      0.422027
     64 C1         14.6580   22.1120   33.7230 c3         4 MGO      0.304529
     65 H1         13.5700   21.9800   33.8860 h2         4 MGO      0.090782
     66 O1         15.3040   20.8420   33.3670 os         4 MGO     -0.453070
     67 C2         14.8600   23.0890   32.5700 c3         4 MGO      0.092199
     68 H2         14.3630   24.0380   32.7920 h1         4 MGO      0.102926
     69 O2         14.3130   22.5210   31.3690 oh         4 MGO     -0.586639
     70 HO2        14.2290   21.5600   31.4740 ho         4 MGO      0.425065
     71 C3         16.3370   23.3130   32.3210 c3         4 MGO      0.093211
     72 H3         16.7910   22.3780   31.9780 h1         4 MGO      0.064468
     73 O3         16.4410   24.3220   31.3040 oh         4 MGO     -0.592567
     74 HO3        15.7210   24.1580   30.6790 ho         4 MGO      0.421017
     75 C4         17.0410   23.7930   33.5820 c3         4 MGO      0.127621
     76 H4         16.7170   24.8120   33.8080 h1         4 MGO      0.080661
     77 C5         16.7580   22.8680   34.7800 c3         4 MGO      0.104343
     78 H5         17.1970   21.8950   34.5530 h1         4 MGO      0.068516
     79 O5         15.2900   22.6810   34.9270 os         4 MGO     -0.427383
     80 C6         17.3370   23.2850   36.1400 c3         4 MGO      0.141081
     81 H61        18.3200   22.8280   36.2780 h1         4 MGO      0.057384
     82 H62        16.6880   22.9390   36.9470 h1         4 MGO      0.057384
     83 O6         17.4820   24.7080   36.2200 oh         4 MGO     -0.593555
     84 HO6        18.3600   24.9380   35.8900 ho         4 MGO      0.422027
     85 C1         14.7960   16.7400   33.8350 c3         5 MGO      0.304529
     86 H1         14.3710   15.7320   34.0080 h2         5 MGO      0.090782
     87 O1         16.2100   16.6660   33.4430 os         5 MGO     -0.453070
     88 C2         14.0230   17.4040   32.7010 c3         5 MGO      0.092199
     89 H2         12.9590   17.4490   32.9510 h1         5 MGO      0.102926
     90 O2         14.2120   16.6480   31.4950 oh         5 MGO     -0.586639
     91 HO2        15.0030   16.0950   31.5800 ho         5 MGO      0.425065
     92 C3         14.5610   18.7960   32.4410 c3         5 MGO      0.093211
     93 H3         15.5890   18.7220   32.0720 h1         5 MGO      0.064468
     94 O3         13.7140   19.3920   31.4440 oh         5 MGO     -0.592567
     95 HO3        13.4810   18.6870   30.8250 ho         5 MGO      0.421017
     96 C4         14.5290   19.6450   33.7040 c3         5 MGO      0.127621
     97 H4         13.4910   19.8730   33.9560 h1         5 MGO      0.080661
     98 C5         15.2180   18.9360   34.8850 c3         5 MGO      0.104343
     99 H5         16.2750   18.8290   34.6310 h1         5 MGO      0.068516
    100 O5         14.6500   17.5710   35.0440 os         5 MGO     -0.427383
    101 C6         15.1810   19.6440   36.2460 c3         5 MGO      0.141081
    102 H61        16.0720   20.2660   36.3620 h1         5 MGO      0.057384
    103 H62        15.1770   18.9080   37.0540 h1         5 MGO      0.057384
    104 O6         14.0230   20.4810   36.3550 oh         5 MGO     -0.593555
    105 HO6        14.2550   21.3570   36.0210 ho         5 MGO      0.422027
    106 C1         19.5200   14.1730   33.8250 c3         6 MGO      0.304529
    107 H1         20.1830   13.2990   33.9810 h2         6 MGO      0.090782
    108 O1         20.2810   15.3590   33.4150 os         6 MGO     -0.453070
    109 C2         18.5280   13.8370   32.7160 c3         6 MGO      0.092199
    110 H2         17.9640   12.9370   32.9790 h1         6 MGO      0.102926
    111 O2         19.2470   13.6230   31.4900 oh         6 MGO     -0.586639
    112 HO2        20.1240   14.0310   31.5530 ho         6 MGO      0.425065
    113 C3         17.5860   14.9990   32.4800 c3         6 MGO      0.093211
    114 H3         18.1550   15.8520   32.0980 h1         6 MGO      0.064468
    115 O3         16.6210   14.5650   31.5080 oh         6 MGO     -0.592567
    116 HO3        17.1000   14.0110   30.8760 ho         6 MGO      0.421017
    117 C4         16.8680   15.3950   33.7620 c3         6 MGO      0.127621
    118 H4         16.1570   14.6090   34.0320 h1         6 MGO      0.080661
    119 C5         17.8560   15.6350   34.9180 c3         6 MGO      0.104343
    120 H5         18.4700   16.4970   34.6500 h1         6 MGO      0.068516
    121 O5         18.7570   14.4590   35.0540 os         6 MGO     -0.427383
    122 C6         17.2590   15.9570   36.2960 c3         6 MGO      0.141081
    123 H61        17.1690   17.0390   36.4150 h1         6 MGO      0.057384
    124 H62        17.9140   15.5830   37.0870 h1         6 MGO      0.057384
    125 O6         15.9570   15.3710   36.4380 oh         6 MGO     -0.593555
    126 HO6        15.3060   16.0120   36.1200 ho         6 MGO      0.422027
@<TRIPOS>BOND
    1    17    20 1
    2    14    16 1
    3    14    17 1
    4    12    14 1
    5    12   108 1
    6     8    10 1
    7     8    12 1
    8     4     6 1
    9     4     8 1
   10     3    33 1
   11     1     3 1
   12     1     4 1
   13     1    16 1
   14    38    41 1
   15    35    37 1
   16    35    38 1
   17    33    35 1
   18    29    31 1
   19    29    33 1
   20    25    27 1
   21    25    29 1
   22    24    54 1
   23    22    24 1
   24    22    25 1
   25    22    37 1
   26    59    62 1
   27    56    58 1
   28    56    59 1
   29    54    56 1
   30    50    52 1
   31    50    54 1
   32    46    48 1
   33    46    50 1
   34    45    75 1
   35    43    45 1
   36    43    46 1
   37    43    58 1
   38    80    83 1
   39    77    79 1
   40    77    80 1
   41    75    77 1
   42    71    73 1
   43    71    75 1
   44    67    69 1
   45    67    71 1
   46    66    96 1
   47    64    66 1
   48    64    67 1
   49    64    79 1
   50   101   104 1
   51    98   100 1
   52    98   101 1
   53    96    98 1
   54    92    94 1
   55    92    96 1
   56    88    90 1
   57    88    92 1
   58    87   117 1
   59    85    87 1
   60    85    88 1
   61    85   100 1
   62   122   125 1
   63   119   121 1
   64   119   122 1
   65   117   119 1
   66   113   115 1
   67   113   117 1
   68   109   111 1
   69   109   113 1
   70   106   108 1
   71   106   109 1
   72   106   121 1
   73    20    21 1
   74    17    18 1
   75    17    19 1
   76    14    15 1
   77    12    13 1
   78    10    11 1
   79     8     9 1
   80     6     7 1
   81     4     5 1
   82     1     2 1
   83    41    42 1
   84    38    39 1
   85    38    40 1
   86    35    36 1
   87    33    34 1
   88    31    32 1
   89    29    30 1
   90    27    28 1
   91    25    26 1
   92    22    23 1
   93    62    63 1
   94    59    60 1
   95    59    61 1
   96    56    57 1
   97    54    55 1
   98    52    53 1
   99    50    51 1
  100    48    49 1
  101    46    47 1
  102    43    44 1
  103    83    84 1
  104    80    81 1
  105    80    82 1
  106    77    78 1
  107    75    76 1
  108    73    74 1
  109    71    72 1
  110    69    70 1
  111    67    68 1
  112    64    65 1
  113   104   105 1
  114   101   102 1
  115   101   103 1
  116    98    99 1
  117    96    97 1
  118    94    95 1
  119    92    93 1
  120    90    91 1
  121    88    89 1
  122    85    86 1
  123   125   126 1
  124   122   123 1
  125   122   124 1
  126   119   120 1
  127   117   118 1
  128   115   116 1
  129   113   114 1
  130   111   112 1
  131   109   110 1
  132   106   107 1
@<TRIPOS>SUBSTRUCTURE
      1 MGO               1 ****               0 ****  **** 
      2 MGO              22 ****               0 ****  **** 
      3 MGO              43 ****               0 ****  **** 
      4 MGO              64 ****               0 ****  **** 
      5 MGO              85 ****               0 ****  **** 
      6 MGO             106 ****               0 ****  **** 
