@<TRIPOS>MOLECULE
Cpptraj
   29    28     1     0     0
SMALL
No Charge or Current Charge


@<TRIPOS>ATOM
      1 C1          19.8300    20.0850    31.6540 C.3        1 MHP      -0.096100
      2 H3          19.6110    21.1550    31.5990 H          1 MHP       0.040700
      3 H4          20.9130    19.9500    31.6150 H          1 MHP       0.040700
      4 H5          19.3920    19.6010    30.7780 H          1 MHP       0.040700
      5 C2          19.2520    19.4770    32.9430 C.3        1 MHP      -0.079400
      6 H6          19.4600    18.4040    32.9600 H          1 MHP       0.042700
      7 H7          18.1660    19.6020    32.9450 H          1 MHP       0.042700
      8 C3          19.8540    20.1440    34.1980 C.3        1 MHP      -0.080400
      9 H8          20.9390    20.0180    34.1910 H          1 MHP       0.046200
     10 H9          19.6450    21.2160    34.1760 H          1 MHP       0.046200
     11 C4          19.2730    19.5320    35.4910 C.3        1 MHP      -0.080400
     12 H10         19.4810    18.4600    35.5110 H          1 MHP       0.049200
     13 H11         18.1870    19.6580    35.4970 H          1 MHP       0.049200
     14 C5          19.8760    20.1980    36.7450 C.3        1 MHP      -0.079400
     15 H12         20.9620    20.0700    36.7390 H          1 MHP       0.055700
     16 H13         19.6700    21.2710    36.7160 H          1 MHP       0.055700
     17 C6          19.2940    19.5850    38.0390 C.3        1 MHP      -0.109400
     18 H14         19.4680    18.5070    38.0210 H          1 MHP       0.069200
     19 H15         18.2110    19.7370    38.0650 H          1 MHP       0.069200
     20 C7          19.9400    20.1800    39.3110 C.3        1 MHP       0.128500
     21 H16         19.7230    21.2520    39.3450 H          1 MHP       0.111700
     22 C8          21.4630    19.9840    39.2420 C.3        1 MHP      -0.138100
     23 H17         21.7260    18.9240    39.2060 H          1 MHP       0.082700
     24 H18         21.8720    20.4670    38.3510 H          1 MHP       0.082700
     25 H19         21.9510    20.4310    40.1120 H          1 MHP       0.082700
     26 N1          19.3920    19.6010    40.5840 N.4        1 MHP      -0.847600
     27 H1          18.3770    19.7660    40.6740 H          1 MHP       0.458133
     28 H2          19.8430    20.0220    41.4110 H          1 MHP       0.458133
     29 HN11        19.5480    18.5820    40.6330 H          1 MHP       0.458134
@<TRIPOS>BOND
     1    20    22 1   
     2    20    26 1   
     3    17    20 1   
     4    14    17 1   
     5    11    14 1   
     6     8    11 1   
     7     5     8 1   
     8     1     5 1   
     9    26    27 1   
    10    26    28 1   
    11    26    29 1   
    12    22    23 1   
    13    22    24 1   
    14    22    25 1   
    15    20    21 1   
    16    17    18 1   
    17    17    19 1   
    18    14    15 1   
    19    14    16 1   
    20    11    12 1   
    21    11    13 1   
    22     8     9 1   
    23     8    10 1   
    24     5     6 1   
    25     5     7 1   
    26     1     2 1   
    27     1     3 1   
    28     1     4 1   
@<TRIPOS>SUBSTRUCTURE
     1 MHP         1 TEMP              0 ****  ****    0 ROOT
