@<TRIPOS>MOLECULE
Cpptraj
   26    25     1     0     0
SMALL
No Charge or Current Charge


@<TRIPOS>ATOM
      1 C1          19.8370    19.6710    32.1430 C.3        1 HPA      -0.096074
      2 H3          18.9460    20.3030    32.1020 H          1 HPA       0.040711
      3 H4          20.7200    20.3130    32.1020 H          1 HPA       0.040711
      4 H5          19.8400    19.0250    31.2630 H          1 HPA       0.040711
      5 C2          19.8410    18.8210    33.4280 C.3        1 HPA      -0.079379
      6 H6          20.7260    18.1810    33.4310 H          1 HPA       0.042711
      7 H7          18.9620    18.1710    33.4310 H          1 HPA       0.042711
      8 C3          19.8360    19.7100    34.6890 C.3        1 HPA      -0.080378
      9 H8          20.7150    20.3610    34.6790 H          1 HPA       0.046713
     10 H9          18.9510    20.3510    34.6790 H          1 HPA       0.046713
     11 C4          19.8410    18.8570    35.9750 C.3        1 HPA      -0.079379
     12 H10         20.7260    18.2160    35.9840 H          1 HPA       0.048713
     13 H11         18.9620    18.2070    35.9840 H          1 HPA       0.048713
     14 C5          19.8360    19.7460    37.2360 C.3        1 HPA      -0.079379
     15 H12         20.7150    20.3960    37.2270 H          1 HPA       0.057715
     16 H13         18.9510    20.3870    37.2270 H          1 HPA       0.057715
     17 C6          19.8410    18.8930    38.5220 C.3        1 HPA      -0.111370
     18 H14         20.7270    18.2540    38.5350 H          1 HPA       0.069719
     19 H15         18.9610    18.2450    38.5350 H          1 HPA       0.069719
     20 C7          19.8360    19.7930    39.7720 C.3        1 HPA       0.098826
     21 H16         20.7200    20.4370    39.7700 H          1 HPA       0.113730
     22 H17         18.9460    20.4280    39.7700 H          1 HPA       0.113730
     23 N1          19.8400    19.0250    41.0760 N.4        1 HPA      -0.839375
     24 H1          20.6740    18.4230    41.1640 H          1 HPA       0.461924
     25 H2          19.0120    18.4140    41.1640 H          1 HPA       0.461924
     26 HN11        19.8370    19.6580    41.8930 H          1 HPA       0.461925
@<TRIPOS>BOND
     1    20    23 1   
     2    17    20 1   
     3    14    17 1   
     4    11    14 1   
     5     8    11 1   
     6     5     8 1   
     7     1     5 1   
     8    23    24 1   
     9    23    25 1   
    10    23    26 1   
    11    20    21 1   
    12    20    22 1   
    13    17    18 1   
    14    17    19 1   
    15    14    15 1   
    16    14    16 1   
    17    11    12 1   
    18    11    13 1   
    19     8     9 1   
    20     8    10 1   
    21     5     6 1   
    22     5     7 1   
    23     1     2 1   
    24     1     3 1   
    25     1     4 1   
@<TRIPOS>SUBSTRUCTURE
     1 HPA         1 TEMP              0 ****  ****    0 ROOT
