@<TRIPOS>MOLECULE
Cpptraj
  126   132     1     0     0
SMALL
No Charge or Current Charge


@<TRIPOS>ATOM
      1 C1          23.5900    15.0860    34.2530 C.3        1 MGO       0.304529
      2 H1          24.6690    14.8870    34.4050 H          1 MGO       0.090782
      3 O1          23.3530    16.4760    33.8450 O.3        1 MGO      -0.453070
      4 C2          23.0780    14.1710    33.1450 C.3        1 MGO       0.092199
      5 H2          23.2680    13.1260    33.4070 H          1 MGO       0.102926
      6 O2          23.7510    14.4970    31.9170 O.3        1 MGO      -0.586639
      7 HO2         24.1240    15.3890    31.9800 H          1 MGO       0.425065
      8 C3          21.5990    14.3970    32.9140 C.3        1 MGO       0.093211
      9 H3          21.4450    15.4100    32.5330 H          1 MGO       0.064468
     10 O3          21.1750    13.4270    31.9430 O.3        1 MGO      -0.592567
     11 HO3         21.9000    13.3380    31.3080 H          1 MGO       0.421017
     12 C4          20.8060    14.2060    34.1990 C.3        1 MGO       0.127621
     13 H4          20.8090    13.1460    34.4680 H          1 MGO       0.080661
     14 C5          21.3780    15.0480    35.3530 C.3        1 MGO       0.104343
     15 H5          21.2510    16.0990    35.0850 H          1 MGO       0.068516
     16 O5          22.8360    14.7850    35.4840 O.3        1 MGO      -0.427383
     17 C6          20.7240    14.8830    36.7330 C.3        1 MGO       0.141081
     18 H61         19.9300    15.6230    36.8550 H          1 MGO       0.057384
     19 H62         21.4630    15.0480    37.5220 H          1 MGO       0.057384
     20 O6          20.1550    13.5750    36.8760 O.3        1 MGO      -0.593555
     21 HO6         19.2430    13.6100    36.5610 H          1 MGO       0.422027
     22 C1          25.0910    20.2450    34.1280 C.3        2 MGO       0.304529
     23 H1          25.8060    21.0820    34.2540 H          2 MGO       0.090782
     24 O1          23.7610    20.7310    33.7400 O.3        2 MGO      -0.453070
     25 C2          25.6060    19.3310    33.0210 C.3        2 MGO       0.092199
     26 H2          26.6100    18.9760    33.2670 H          2 MGO       0.102926
     27 O2          25.6330    20.0600    31.7830 O.3        2 MGO      -0.586639
     28 HO2         25.0500    20.8310    31.8470 H          2 MGO       0.425065
     29 C3          24.6640    18.1600    32.8250 C.3        2 MGO       0.093211
     30 H3          23.7020    18.5280    32.4590 H          2 MGO       0.064468
     31 O3          25.2730    17.2940    31.8520 O.3        2 MGO      -0.592567
     32 HO3         25.6980    17.8700    31.2000 H          2 MGO       0.421017
     33 C4          24.4600    17.3940    34.1240 C.3        2 MGO       0.127621
     34 H4          25.3850    16.8710    34.3810 H          2 MGO       0.080661
     35 C5          24.0410    18.3270    35.2760 C.3        2 MGO       0.104343
     36 H5          23.0620    18.7390    35.0230 H          2 MGO       0.068516
     37 O5          25.0010    19.4590    35.3720 O.3        2 MGO      -0.427383
     38 C6          23.8860    17.6960    36.6680 C.3        2 MGO       0.141081
     39 H61         22.8520    17.3800    36.8150 H          2 MGO       0.057384
     40 H62         24.1290    18.4280    37.4410 H          2 MGO       0.057384
     41 O6          24.7370    16.5520    36.8080 O.3        2 MGO      -0.593555
     42 HO6         24.2440    15.7740    36.5140 H          2 MGO       0.422027
     43 C1          21.3720    24.1250    34.0280 C.3        3 MGO       0.304529
     44 H1          21.0090    25.1640    34.1480 H          3 MGO       0.090782
     45 O1          20.2790    23.2110    33.6750 O.3        3 MGO      -0.453070
     46 C2          22.3980    24.0980    32.9000 C.3        3 MGO       0.092199
     47 H2          23.2140    24.7930    33.1200 H          3 MGO       0.102926
     48 O2          21.7570    24.4710    31.6700 O.3        3 MGO      -0.586639
     49 HO2         20.7990    24.3520    31.7550 H          3 MGO       0.425065
     50 C3          22.9380    22.6950    32.7120 C.3        3 MGO       0.093211
     51 H3          22.1310    22.0410    32.3700 H          3 MGO       0.064468
     52 O3          23.9710    22.7760    31.7160 O.3        3 MGO      -0.592567
     53 HO3         23.6730    23.4230    31.0630 H          3 MGO       0.421017
     54 C4          23.5260    22.1520    34.0060 C.3        3 MGO       0.127621
     55 H4          24.4460    22.6950    34.2380 H          3 MGO       0.080661
     56 C5          22.5330    22.2720    35.1770 C.3        3 MGO       0.104343
     57 H5          21.6810    21.6270    34.9500 H          3 MGO       0.068516
     58 O5          22.0340    23.6700    35.2650 O.3        3 MGO      -0.427383
     59 C6          23.0290    21.8400    36.5650 C.3        3 MGO       0.141081
     60 H61         22.7880    20.7880    36.7310 H          3 MGO       0.057384
     61 H62         22.5320    22.4270    37.3400 H          3 MGO       0.057384
     62 O6          24.4490    22.0060    36.6740 O.3        3 MGO      -0.593555
     63 HO6         24.8680    21.1860    36.3810 H          3 MGO       0.422027
     64 C1          16.1520    22.8470    34.0520 C.3        4 MGO       0.304529
     65 H1          15.0730    23.0520    34.1910 H          4 MGO       0.090782
     66 O1          16.3900    21.4370    33.7140 O.3        4 MGO      -0.453070
     67 C2          16.6650    23.7060    32.9020 C.3        4 MGO       0.092199
     68 H2          16.4760    24.7630    33.1120 H          4 MGO       0.102926
     69 O2          15.9970    23.3200    31.6910 O.3        4 MGO      -0.586639
     70 HO2         15.6230    22.4320    31.7960 H          4 MGO       0.425065
     71 C3          18.1460    23.4680    32.6860 C.3        4 MGO       0.093211
     72 H3          18.3010    22.4370    32.3550 H          4 MGO       0.064468
     73 O3          18.5720    24.3890    31.6690 O.3        4 MGO      -0.592567
     74 HO3         17.8490    24.4460    31.0290 H          4 MGO       0.421017
     75 C4          18.9360    23.7230    33.9620 C.3        4 MGO       0.127621
     76 H4          18.9320    24.7940    34.1780 H          4 MGO       0.080661
     77 C5          18.3610    22.9380    35.1550 C.3        4 MGO       0.104343
     78 H5          18.4880    21.8760    34.9390 H          4 MGO       0.068516
     79 O5          16.9030    23.2070    35.2690 O.3        4 MGO      -0.427383
     80 C6          19.0110    23.1710    36.5260 C.3        4 MGO       0.141081
     81 H61         19.8050    22.4390    36.6870 H          4 MGO       0.057384
     82 H62         18.2710    23.0460    37.3200 H          4 MGO       0.057384
     83 O6          19.5790    24.4840    36.6070 O.3        4 MGO      -0.593555
     84 HO6         20.4930    24.4330    36.2960 H          4 MGO       0.422027
     85 C1          14.6500    17.6870    34.1780 C.3        5 MGO       0.304529
     86 H1          13.9350    16.8570    34.3440 H          5 MGO       0.090782
     87 O1          15.9820    17.1840    33.8180 O.3        5 MGO      -0.453070
     88 C2          14.1380    18.5450    33.0270 C.3        5 MGO       0.092199
     89 H2          13.1340    18.9130    33.2520 H          5 MGO       0.102926
     90 O2          14.1140    17.7560    31.8260 O.3        5 MGO      -0.586639
     91 HO2         14.6970    16.9900    31.9300 H          5 MGO       0.425065
     92 C3          15.0800    19.7050    32.7750 C.3        5 MGO       0.093211
     93 H3          16.0430    19.3190    32.4290 H          5 MGO       0.064468
     94 O3          14.4740    20.5220    31.7590 O.3        5 MGO      -0.592567
     95 HO3         14.0510    19.9160    31.1360 H          5 MGO       0.421017
     96 C4          15.2810    20.5350    34.0360 C.3        5 MGO       0.127621
     97 H4          14.3560    21.0700    34.2640 H          5 MGO       0.080661
     98 C5          15.6970    19.6600    35.2330 C.3        5 MGO       0.104343
     99 H5          16.6760    19.2350    35.0030 H          5 MGO       0.068516
    100 O5          14.7380    18.5340    35.3820 O.3        5 MGO      -0.427383
    101 C6          15.8490    20.3590    36.5920 C.3        5 MGO       0.141081
    102 H61         16.8840    20.6810    36.7260 H          5 MGO       0.057384
    103 H62         15.6050    19.6650    37.4000 H          5 MGO       0.057384
    104 O6          14.9980    21.5090    36.6740 O.3        5 MGO      -0.593555
    105 HO6         15.4920    22.2690    36.3430 H          5 MGO       0.422027
    106 C1          18.3690    13.8070    34.2790 C.3        6 MGO       0.304529
    107 H1          18.7330    12.7750    34.4510 H          6 MGO       0.090782
    108 O1          19.4630    14.7020    33.8830 O.3        6 MGO      -0.453070
    109 C2          17.3460    13.7780    33.1490 C.3        6 MGO       0.092199
    110 H2          16.5290    13.0950    33.4000 H          6 MGO       0.102926
    111 O2          17.9910    13.3450    31.9400 O.3        6 MGO      -0.586639
    112 HO2         18.9490    13.4690    32.0210 H          6 MGO       0.425065
    113 C3          16.8060    15.1700    32.8890 C.3        6 MGO       0.093211
    114 H3          17.6160    15.8060    32.5190 H          6 MGO       0.064468
    115 O3          15.7750    15.0400    31.8970 O.3        6 MGO      -0.592567
    116 HO3         16.0760    14.3620    31.2770 H          6 MGO       0.421017
    117 C4          16.2160    15.7760    34.1550 C.3        6 MGO       0.127621
    118 H4          15.2950    15.2460    34.4100 H          6 MGO       0.080661
    119 C5          17.2060    15.7150    35.3320 C.3        6 MGO       0.104343
    120 H5          18.0590    16.3480    35.0760 H          6 MGO       0.068516
    121 O5          17.7050    14.3220    35.4900 O.3        6 MGO      -0.427383
    122 C6          16.7070    16.2150    36.6950 C.3        6 MGO       0.141081
    123 H61         16.9470    17.2740    36.8100 H          6 MGO       0.057384
    124 H62         17.2010    15.6670    37.5010 H          6 MGO       0.057384
    125 O6          15.2860    16.0530    36.8090 O.3        6 MGO      -0.593555
    126 HO6         14.8670    16.8580    36.4760 H          6 MGO       0.422027
@<TRIPOS>BOND
     1    17    20 1   
     2    14    16 1   
     3    14    17 1   
     4    12    14 1   
     5    12   108 1   
     6     8    10 1   
     7     8    12 1   
     8     4     6 1   
     9     4     8 1   
    10     3    33 1   
    11     1     3 1   
    12     1     4 1   
    13     1    16 1   
    14    38    41 1   
    15    35    37 1   
    16    35    38 1   
    17    33    35 1   
    18    29    31 1   
    19    29    33 1   
    20    25    27 1   
    21    25    29 1   
    22    24    54 1   
    23    22    24 1   
    24    22    25 1   
    25    22    37 1   
    26    59    62 1   
    27    56    58 1   
    28    56    59 1   
    29    54    56 1   
    30    50    52 1   
    31    50    54 1   
    32    46    48 1   
    33    46    50 1   
    34    45    75 1   
    35    43    45 1   
    36    43    46 1   
    37    43    58 1   
    38    80    83 1   
    39    77    79 1   
    40    77    80 1   
    41    75    77 1   
    42    71    73 1   
    43    71    75 1   
    44    67    69 1   
    45    67    71 1   
    46    66    96 1   
    47    64    66 1   
    48    64    67 1   
    49    64    79 1   
    50   101   104 1   
    51    98   100 1   
    52    98   101 1   
    53    96    98 1   
    54    92    94 1   
    55    92    96 1   
    56    88    90 1   
    57    88    92 1   
    58    87   117 1   
    59    85    87 1   
    60    85    88 1   
    61    85   100 1   
    62   122   125 1   
    63   119   121 1   
    64   119   122 1   
    65   117   119 1   
    66   113   115 1   
    67   113   117 1   
    68   109   111 1   
    69   109   113 1   
    70   106   108 1   
    71   106   109 1   
    72   106   121 1   
    73    20    21 1   
    74    17    18 1   
    75    17    19 1   
    76    14    15 1   
    77    12    13 1   
    78    10    11 1   
    79     8     9 1   
    80     6     7 1   
    81     4     5 1   
    82     1     2 1   
    83    41    42 1   
    84    38    39 1   
    85    38    40 1   
    86    35    36 1   
    87    33    34 1   
    88    31    32 1   
    89    29    30 1   
    90    27    28 1   
    91    25    26 1   
    92    22    23 1   
    93    62    63 1   
    94    59    60 1   
    95    59    61 1   
    96    56    57 1   
    97    54    55 1   
    98    52    53 1   
    99    50    51 1   
   100    48    49 1   
   101    46    47 1   
   102    43    44 1   
   103    83    84 1   
   104    80    81 1   
   105    80    82 1   
   106    77    78 1   
   107    75    76 1   
   108    73    74 1   
   109    71    72 1   
   110    69    70 1   
   111    67    68 1   
   112    64    65 1   
   113   104   105 1   
   114   101   102 1   
   115   101   103 1   
   116    98    99 1   
   117    96    97 1   
   118    94    95 1   
   119    92    93 1   
   120    90    91 1   
   121    88    89 1   
   122    85    86 1   
   123   125   126 1   
   124   122   123 1   
   125   122   124 1   
   126   119   120 1   
   127   117   118 1   
   128   115   116 1   
   129   113   114 1   
   130   111   112 1   
   131   109   110 1   
   132   106   107 1   
@<TRIPOS>SUBSTRUCTURE
     1 MGO         1 TEMP              0 ****  ****    0 ROOT
