@<TRIPOS>MOLECULE
MBA
   20    19     1     0     0
SMALL
bcc


@<TRIPOS>ATOM
      1 N1         -1.3060    0.7140    4.9620 n4        1 MBA     -0.845836
      2 H1         -2.1080    0.0720    4.8680 hn        1 MBA      0.459005
      3 H2         -1.4330    1.4710    4.2730 hn        1 MBA      0.459005
      4 HN11       -1.3690    1.1420    5.9000 hn        1 MBA      0.459005
      5 C1          0.0000   -0.0000    4.7690 c3        1 MBA      0.130464
      6 H3          0.0390   -0.7530    5.5630 hx        1 MBA      0.108670
      7 C2          1.2030    0.9430    4.9500 c3        1 MBA     -0.138138
      8 H4          1.1680    1.7850    4.2560 hc        1 MBA      0.082677
      9 H5          2.1410    0.4050    4.7920 hc        1 MBA      0.082677
     10 H6          1.2220    1.3470    5.9650 hc        1 MBA      0.082677
     11 C3          0.0790   -0.7400    3.4130 c3        1 MBA     -0.118433
     12 H7          1.0090   -1.3150    3.3810 hc        1 MBA      0.089675
     13 H8         -0.7320   -1.4730    3.3650 hc        1 MBA      0.089675
     14 C4          0.0100    0.1760    2.1660 c3        1 MBA     -0.090425
     15 H9          0.8510    0.8720    2.1550 hc        1 MBA      0.039189
     16 H10        -0.9100    0.7670    2.1790 hc        1 MBA      0.039189
     17 C5          0.0460   -0.6560    0.8720 c3        1 MBA     -0.099128
     18 H11         0.9680   -1.2380    0.8140 hc        1 MBA      0.056684
     19 H12        -0.0000    0.0000   -0.0000 hc        1 MBA      0.056684
     20 H13        -0.8030   -1.3420    0.8290 hc        1 MBA      0.056684
@<TRIPOS>BOND
     1    1    2 1   
     2    1    3 1   
     3    1    4 1   
     4    1    5 1   
     5    5    6 1   
     6    5    7 1   
     7    5   11 1   
     8    7    8 1   
     9    7    9 1   
    10    7   10 1   
    11   11   12 1   
    12   11   13 1   
    13   11   14 1   
    14   14   15 1   
    15   14   16 1   
    16   14   17 1   
    17   17   18 1   
    18   17   19 1   
    19   17   20 1   
@<TRIPOS>SUBSTRUCTURE
     1 MBA         1 TEMP              0 ****  ****    0 ROOT
