@<TRIPOS>MOLECULE
HP6
   20    19     1     0     0
SMALL
bcc


@<TRIPOS>ATOM
      1 C1          0.0000   -0.0000   -0.0000 c2        1 HP6     -0.257064
      2 H1          1.0160   -0.2820    0.2790 ha        1 HP6      0.100975
      3 H2         -0.1360    0.4460   -0.9860 ha        1 HP6      0.100975
      4 C2         -1.0280   -0.1890    0.8190 c2        1 HP6     -0.140235
      5 H3         -2.0330    0.1020    0.5150 ha        1 HP6      0.111972
      6 C3         -0.9070   -0.8040    2.1980 c3        1 HP6     -0.058215
      7 H4          0.0740   -1.2700    2.3210 hc        1 HP6      0.046688
      8 H5         -1.6570   -1.5910    2.3080 hc        1 HP6      0.046688
      9 C4         -1.1110    0.2540    3.3010 c3        1 HP6     -0.075419
     10 H6         -0.3620    1.0430    3.1910 hc        1 HP6      0.028193
     11 H7         -2.0950    0.7150    3.1860 hc        1 HP6      0.028193
     12 C5         -0.9970   -0.3720    4.7080 c3        1 HP6     -0.066417
     13 H8         -0.0120   -0.8330    4.8240 hc        1 HP6      0.044189
     14 H9         -1.7450   -1.1610    4.8170 hc        1 HP6      0.044189
     15 C6         -1.2010    0.6860    5.8110 c3        1 HP6     -0.194449
     16 H10        -0.4570    1.4820    5.6960 hc        1 HP6      0.019195
     17 H11        -2.1830    1.1550    5.6890 hc        1 HP6      0.019195
     18 C7         -1.0860    0.0530    7.1970  c        1 HP6      0.907373
     19 O1          0.0000   -0.0000    7.7500  o        1 HP6     -0.853013
     20 O2         -2.0830   -0.3940    7.7410  o        1 HP6     -0.853013
@<TRIPOS>BOND
     1    1    2 1   
     2    1    3 1   
     3    1    4 2   
     4    4    5 1   
     5    4    6 1   
     6    6    7 1   
     7    6    8 1   
     8    6    9 1   
     9    9   10 1   
    10    9   11 1   
    11    9   12 1   
    12   12   13 1   
    13   12   14 1   
    14   12   15 1   
    15   15   16 1   
    16   15   17 1   
    17   15   18 1   
    18   18   19 1   
    19   18   20 1   
@<TRIPOS>SUBSTRUCTURE
     1 HP6         1 TEMP              0 ****  ****    0 ROOT
