@<TRIPOS>MOLECULE
Cpptraj
  147   154     1     0     0
SMALL
No Charge or Current Charge


@<TRIPOS>ATOM
      1 C1          15.6970    15.7430    33.1140 C.3        1 MGO       0.304529
      2 H1          14.6100    15.5750    32.9830 H          1 MGO       0.090782
      3 O1          15.9940    17.1550    33.3830 O.3        1 MGO      -0.453070
      4 C2          16.1670    14.9080    34.3010 C.3        1 MGO       0.092199
      5 H2          15.9020    13.8590    34.1410 H          1 MGO       0.102926
      6 O2          15.5440    15.3850    35.5060 O.3        1 MGO      -0.586639
      7 HO2         15.1900    16.2780    35.3670 H          1 MGO       0.425065
      8 C3          17.6630    15.0420    34.4940 C.3        1 MGO       0.093211
      9 H3          17.9060    16.0740    34.7650 H          1 MGO       0.064468
     10 O3          18.0250    14.1390    35.5520 O.3        1 MGO      -0.592567
     11 HO3         17.3060    14.1770    36.1980 H          1 MGO       0.421017
     12 C4          18.3940    14.6480    33.2210 C.3        1 MGO       0.127621
     13 H4          18.2360    13.5830    33.0340 H          1 MGO       0.080661
     14 C5          17.8930    15.4610    32.0160 C.3        1 MGO       0.104343
     15 H5          18.1040    16.5150    32.2140 H          1 MGO       0.068516
     16 O5          16.4190    15.3010    31.9050 O.3        1 MGO      -0.427383
     17 C6          18.5330    15.1450    30.6560 C.3        1 MGO       0.141081
     18 H61         19.4180    15.7690    30.5130 H          1 MGO       0.057384
     19 H62         17.8290    15.3650    29.8510 H          1 MGO       0.057384
     20 O6          18.9290    13.7690    30.5870 O.3        1 MGO      -0.593555
     21 HO6         19.8350    13.6990    30.9140 H          1 MGO       0.422027
     22 C1          14.0420    20.8440    32.9800 C.3        2 MGO       0.304529
     23 H1          13.2350    21.5890    32.8290 H          2 MGO       0.090782
     24 O1          15.3250    21.4950    33.2720 O.3        2 MGO      -0.453070
     25 C2          13.6570    19.9630    34.1650 C.3        2 MGO       0.092199
     26 H2          12.6750    19.5150    33.9870 H          2 MGO       0.102926
     27 O2          13.6170    20.7530    35.3640 O.3        2 MGO      -0.586639
     28 HO2         14.0970    21.5870    35.2310 H          2 MGO       0.425065
     29 C3          14.6920    18.8790    34.3840 C.3        2 MGO       0.093211
     30 H3          15.6440    19.3330    34.6730 H          2 MGO       0.064468
     31 O3          14.1890    18.0390    35.4360 O.3        2 MGO      -0.592567
     32 HO3         13.7570    18.6280    36.0710 H          2 MGO       0.421017
     33 C4          14.8660    18.0540    33.1200 C.3        2 MGO       0.127621
     34 H4          13.9380    17.5130    32.9160 H          2 MGO       0.080661
     35 C5          15.2140    18.9450    31.9170 C.3        2 MGO       0.104343
     36 H5          16.1640    19.4400    32.1320 H          2 MGO       0.068516
     37 O5          14.1720    19.9980    31.7780 O.3        2 MGO      -0.427383
     38 C6          15.3950    18.2410    30.5650 C.3        2 MGO       0.141081
     39 H61         16.4370    17.9380    30.4450 H          2 MGO       0.057384
     40 H62         15.1450    18.9240    29.7490 H          2 MGO       0.057384
     41 O6          14.5670    17.0740    30.4840 O.3        2 MGO      -0.593555
     42 HO6         15.0700    16.3230    30.8270 H          2 MGO       0.422027
     43 C1          16.9990    25.3200    32.8830 C.3        3 MGO       0.304529
     44 H1          17.0820    26.4130    32.7270 H          3 MGO       0.090782
     45 O1          18.3030    24.7230    33.2060 O.3        3 MGO      -0.453070
     46 C2          16.0470    25.0770    34.0500 C.3        3 MGO       0.092199
     47 H2          15.0880    25.5640    33.8490 H          3 MGO       0.102926
     48 O2          16.6140    25.6090    35.2580 O.3        3 MGO      -0.586639
     49 HO2         17.5680    25.7520    35.1430 H          3 MGO       0.425065
     50 C3          15.8400    23.5930    34.2730 C.3        3 MGO       0.093211
     51 H3          16.7830    23.1340    34.5840 H          3 MGO       0.064468
     52 O3          14.8480    23.4690    35.3050 O.3        3 MGO      -0.592567
     53 HO3         15.0260    24.1770    35.9400 H          3 MGO       0.421017
     54 C4          15.3300    22.9360    33.0010 C.3        3 MGO       0.127621
     55 H4          14.3330    23.3230    32.7750 H          3 MGO       0.080661
     56 C5          16.2680    23.2130    31.8170 C.3        3 MGO       0.104343
     57 H5          17.2430    22.7800    32.0550 H          3 MGO       0.068516
     58 O5          16.4450    24.6830    31.6730 O.3        3 MGO      -0.427383
     59 C6          15.8600    22.6250    30.4590 C.3        3 MGO       0.141081
     60 H61         16.2750    21.6200    30.3530 H          3 MGO       0.057384
     61 H62         16.2540    23.2420    29.6470 H          3 MGO       0.057384
     62 O6          14.4320    22.5430    30.3480 O.3        3 MGO      -0.593555
     63 HO6         14.1530    21.6840    30.6900 H          3 MGO       0.422027
     64 C1          22.3450    25.7980    32.8940 C.3        4 MGO       0.304529
     65 H1          23.2530    26.4150    32.7550 H          4 MGO       0.090782
     66 O1          22.6830    24.4100    33.2330 O.3        4 MGO      -0.453070
     67 C2          21.5350    26.3990    34.0400 C.3        4 MGO       0.092199
     68 H2          21.3230    27.4500    33.8290 H          4 MGO       0.102926
     69 O2          22.2790    26.2940    35.2660 O.3        4 MGO      -0.586639
     70 HO2         22.9890    25.6380    35.1700 H          4 MGO       0.425065
     71 C3          20.2420    25.6370    34.2420 C.3        4 MGO       0.093211
     72 H3          20.4640    24.6160    34.5640 H          4 MGO       0.064468
     73 O3          19.5040    26.3400    35.2550 O.3        4 MGO      -0.592567
     74 HO3         20.1550    26.6470    35.9010 H          4 MGO       0.421017
     75 C4          19.4370    25.6170    32.9530 C.3        4 MGO       0.127621
     76 H4          19.1230    26.6360    32.7140 H          4 MGO       0.080661
     77 C5          20.2640    25.0490    31.7890 C.3        4 MGO       0.104343
     78 H5          20.5280    24.0190    32.0390 H          4 MGO       0.068516
     79 O5          21.5260    25.8280    31.6670 O.3        4 MGO      -0.427383
     80 C6          19.5770    24.9940    30.4170 C.3        4 MGO       0.141081
     81 H61         19.0530    24.0410    30.3050 H          4 MGO       0.057384
     82 H62         20.3230    25.0650    29.6200 H          4 MGO       0.057384
     83 O6          18.6260    26.0570    30.2800 O.3        4 MGO      -0.593555
     84 HO6         17.7730    25.7430    30.6070 H          4 MGO       0.422027
     85 C1          26.0500    21.9200    33.0080 C.3        5 MGO       0.304529
     86 H1          27.1020    21.5930    32.8910 H          5 MGO       0.090782
     87 O1          25.1690    20.7910    33.3350 O.3        5 MGO      -0.453070
     88 C2          25.9910    22.9330    34.1470 C.3        5 MGO       0.092199
     89 H2          26.6850    23.7540    33.9440 H          5 MGO       0.102926
     90 O2          26.3470    22.2940    35.3830 O.3        5 MGO      -0.586639
     91 HO2         26.2780    21.3300    35.2920 H          5 MGO       0.425065
     92 C3          24.5840    23.4700    34.3150 C.3        5 MGO       0.093211
     93 H3          23.9180    22.6610    34.6280 H          5 MGO       0.064468
     94 O3          24.6520    24.4910    35.3240 O.3        5 MGO      -0.592567
     95 HO3         25.2850    24.1770    35.9860 H          5 MGO       0.421017
     96 C4          24.0950    24.0790    33.0120 C.3        5 MGO       0.127621
     97 H4          24.7000    24.9600    32.7800 H          5 MGO       0.080661
     98 C5          24.1900    23.0710    31.8560 C.3        5 MGO       0.104343
     99 H5          23.5450    22.2240    32.0970 H          5 MGO       0.068516
    100 O5          25.5890    22.5710    31.7660 O.3        5 MGO      -0.427383
    101 C6          23.7480    23.5650    30.4710 C.3        5 MGO       0.141081
    102 H61         22.6800    23.3810    30.3380 H          5 MGO       0.057384
    103 H62         24.2850    23.0220    29.6890 H          5 MGO       0.057384
    104 O6          23.9900    24.9710    30.3310 O.3        5 MGO      -0.593555
    105 HO6         23.2040    25.4440    30.6380 H          5 MGO       0.422027
    106 C1          25.3270    16.6050    33.1380 C.3        6 MGO       0.304529
    107 H1          25.7310    15.5780    33.0370 H          6 MGO       0.090782
    108 O1          23.8880    16.5900    33.4340 O.3        6 MGO      -0.453070
    109 C2          26.0580    17.2900    34.2890 C.3        6 MGO       0.092199
    110 H2          27.1360    17.2590    34.1100 H          6 MGO       0.102926
    111 O2          25.7530    16.6200    35.5240 O.3        6 MGO      -0.586639
    112 HO2         24.9590    16.0720    35.4180 H          6 MGO       0.425065
    113 C3          25.5960    18.7240    34.4390 C.3        6 MGO       0.093211
    114 H3          24.5420    18.7420    34.7290 H          6 MGO       0.064468
    115 O3          26.4150    19.3140    35.4620 O.3        6 MGO      -0.592567
    116 HO3         26.5510    18.6280    36.1310 H          6 MGO       0.421017
    117 C4          25.7960    19.4790    33.1350 C.3        6 MGO       0.127621
    118 H4          26.8650    19.5550    32.9260 H          6 MGO       0.080661
    119 C5          25.0920    18.7690    31.9680 C.3        6 MGO       0.104343
    120 H5          24.0230    18.7470    32.1860 H          6 MGO       0.068516
    121 O5          25.5750    17.3630    31.8970 O.3        6 MGO      -0.427383
    122 C6          25.2330    19.4140    30.5820 C.3        6 MGO       0.141081
    123 H61         24.4250    20.1330    30.4270 H          6 MGO       0.057384
    124 H62         25.1600    18.6510    29.8030 H          6 MGO       0.057384
    125 O6          26.4850    20.1020    30.4650 O.3        6 MGO      -0.593555
    126 HO6         26.3580    21.0130    30.7620 H          6 MGO       0.422027
    127 C1          20.7180    13.8550    33.1850 C.3        7 MGO       0.304529
    128 H1          20.1700    12.9000    33.0780 H          7 MGO       0.090782
    129 O1          19.8050    14.9730    33.4550 O.3        7 MGO      -0.453070
    130 C2          21.6850    13.7180    34.3590 C.3        7 MGO       0.092199
    131 H2          22.3370    12.8540    34.1970 H          7 MGO       0.102926
    132 O2          20.9460    13.5460    35.5780 O.3        7 MGO      -0.586639
    133 HO2         20.0240    13.8240    35.4510 H          7 MGO       0.425065
    134 C3          22.5160    14.9740    34.5190 C.3        7 MGO       0.093211
    135 H3          21.8670    15.8110    34.7900 H          7 MGO       0.064468
    136 O3          23.4660    14.7080    35.5640 O.3        7 MGO      -0.592567
    137 HO3         23.0000    14.1790    36.2250 H          7 MGO       0.421017
    138 C4          23.2580    15.2830    33.2280 C.3        7 MGO       0.127621
    139 H4          23.9880    14.4920    33.0390 H          7 MGO       0.080661
    140 C5          22.2900    15.3820    32.0390 C.3        7 MGO       0.104343
    141 H5          21.6010    16.2060    32.2380 H          7 MGO       0.068516
    142 O5          21.4940    14.1290    31.9590 O.3        7 MGO      -0.427383
    143 C6          22.9110    15.6670    30.6640 C.3        7 MGO       0.141081
    144 H61         22.9730    16.7460    30.5050 H          7 MGO       0.057384
    145 H62         22.2860    15.2430    29.8750 H          7 MGO       0.057384
    146 O6          24.2330    15.1160    30.5790 O.3        7 MGO      -0.593555
    147 HO6         24.8580    15.7850    30.8870 H          7 MGO       0.422027
@<TRIPOS>BOND
     1    17    20 1   
     2    14    16 1   
     3    14    17 1   
     4    12    14 1   
     5    12   129 1   
     6     8    10 1   
     7     8    12 1   
     8     4     6 1   
     9     4     8 1   
    10     3    33 1   
    11     1     3 1   
    12     1     4 1   
    13     1    16 1   
    14    38    41 1   
    15    35    37 1   
    16    35    38 1   
    17    33    35 1   
    18    29    31 1   
    19    29    33 1   
    20    25    27 1   
    21    25    29 1   
    22    24    54 1   
    23    22    24 1   
    24    22    25 1   
    25    22    37 1   
    26    59    62 1   
    27    56    58 1   
    28    56    59 1   
    29    54    56 1   
    30    50    52 1   
    31    50    54 1   
    32    46    48 1   
    33    46    50 1   
    34    45    75 1   
    35    43    45 1   
    36    43    46 1   
    37    43    58 1   
    38    80    83 1   
    39    77    79 1   
    40    77    80 1   
    41    75    77 1   
    42    71    73 1   
    43    71    75 1   
    44    67    69 1   
    45    67    71 1   
    46    66    96 1   
    47    64    66 1   
    48    64    67 1   
    49    64    79 1   
    50   101   104 1   
    51    98   100 1   
    52    98   101 1   
    53    96    98 1   
    54    92    94 1   
    55    92    96 1   
    56    88    90 1   
    57    88    92 1   
    58    87   117 1   
    59    85    87 1   
    60    85    88 1   
    61    85   100 1   
    62   122   125 1   
    63   119   121 1   
    64   119   122 1   
    65   117   119 1   
    66   113   115 1   
    67   113   117 1   
    68   109   111 1   
    69   109   113 1   
    70   108   138 1   
    71   106   108 1   
    72   106   109 1   
    73   106   121 1   
    74   143   146 1   
    75   140   142 1   
    76   140   143 1   
    77   138   140 1   
    78   134   136 1   
    79   134   138 1   
    80   130   132 1   
    81   130   134 1   
    82   127   129 1   
    83   127   130 1   
    84   127   142 1   
    85    20    21 1   
    86    17    18 1   
    87    17    19 1   
    88    14    15 1   
    89    12    13 1   
    90    10    11 1   
    91     8     9 1   
    92     6     7 1   
    93     4     5 1   
    94     1     2 1   
    95    41    42 1   
    96    38    39 1   
    97    38    40 1   
    98    35    36 1   
    99    33    34 1   
   100    31    32 1   
   101    29    30 1   
   102    27    28 1   
   103    25    26 1   
   104    22    23 1   
   105    62    63 1   
   106    59    60 1   
   107    59    61 1   
   108    56    57 1   
   109    54    55 1   
   110    52    53 1   
   111    50    51 1   
   112    48    49 1   
   113    46    47 1   
   114    43    44 1   
   115    83    84 1   
   116    80    81 1   
   117    80    82 1   
   118    77    78 1   
   119    75    76 1   
   120    73    74 1   
   121    71    72 1   
   122    69    70 1   
   123    67    68 1   
   124    64    65 1   
   125   104   105 1   
   126   101   102 1   
   127   101   103 1   
   128    98    99 1   
   129    96    97 1   
   130    94    95 1   
   131    92    93 1   
   132    90    91 1   
   133    88    89 1   
   134    85    86 1   
   135   125   126 1   
   136   122   123 1   
   137   122   124 1   
   138   119   120 1   
   139   117   118 1   
   140   115   116 1   
   141   113   114 1   
   142   111   112 1   
   143   109   110 1   
   144   106   107 1   
   145   146   147 1   
   146   143   144 1   
   147   143   145 1   
   148   140   141 1   
   149   138   139 1   
   150   136   137 1   
   151   134   135 1   
   152   132   133 1   
   153   130   131 1   
   154   127   128 1   
@<TRIPOS>SUBSTRUCTURE
     1 MGO         1 TEMP              0 ****  ****    0 ROOT
