@<TRIPOS>MOLECULE
Cpptraj
   20    20     1     0     0
SMALL
No Charge or Current Charge


@<TRIPOS>ATOM
      1 C1          18.8740    20.2310    37.4540 C.2        1 MP3       0.917600
      2 O1          17.9460    20.9750    37.7320 O.co2      1 MP3      -0.842300
      3 O2          18.7860    19.0270    37.6300 O.co2      1 MP3      -0.842300
      4 C2          20.1670    20.8160    36.8980 C.3        1 MP3      -0.175100
      5 H1          21.0240    20.2420    37.2640 H          1 MP3       0.037200
      6 H2          20.3070    21.8380    37.2650 H          1 MP3       0.037200
      7 C3          20.1640    20.8150    35.3770 C.ar       1 MP3      -0.013300
      8 C4          19.6810    21.9210    34.6720 C.ar       1 MP3      -0.156000
      9 H3          19.3020    22.7860    35.2130 H          1 MP3       0.118000
     10 C5          19.6830    21.9220    33.2780 C.ar       1 MP3      -0.145000
     11 H4          19.3060    22.7880    32.7340 H          1 MP3       0.103000
     12 C6          20.1670    20.8160    32.5830 C.ar       1 MP3      -0.165000
     13 H5          20.1690    20.8200    31.4950 H          1 MP3       0.104000
     14 C7          20.6480    19.7050    33.2770 C.ar       1 MP3      -0.096300
     15 C8          20.6470    19.7110    34.6720 C.ar       1 MP3      -0.119000
     16 H6          21.0260    18.8480    35.2140 H          1 MP3       0.187000
     17 C9          21.1790    18.5030    32.5200 C.3        1 MP3      -0.041800
     18 H7          20.9680    17.5780    33.0630 H          1 MP3       0.030700
     19 H8          20.7180    18.4270    31.5330 H          1 MP3       0.030700
     20 H9          22.2600    18.5860    32.3890 H          1 MP3       0.030700
@<TRIPOS>BOND
     1    14    15 ar  
     2    14    17 1   
     3    12    14 ar  
     4    10    12 ar  
     5     8    10 ar  
     6     7     8 ar  
     7     7    15 ar  
     8     4     7 1   
     9     1     2 1   
    10     1     3 1   
    11     1     4 1   
    12    17    18 1   
    13    17    19 1   
    14    17    20 1   
    15    15    16 1   
    16    12    13 1   
    17    10    11 1   
    18     8     9 1   
    19     4     5 1   
    20     4     6 1   
@<TRIPOS>SUBSTRUCTURE
     1 MP3         1 TEMP              0 ****  ****    0 ROOT
