@<TRIPOS>MOLECULE
HAM
   23    22     1     0     0
SMALL
bcc


@<TRIPOS>ATOM
      1 N1          0.0000    0.0000    7.6480 n4        1 HAM     -0.839835
      2 H1         -0.8220   -0.6220    7.7190 hn        1 HAM      0.461671
      3 H2         -0.0100    0.6120    8.4810 hn        1 HAM      0.461671
      4 HN11        0.8420   -0.5940    7.7190 hn        1 HAM      0.461671
      5 C1         -0.0140    0.8030    6.3670 c3        1 HAM      0.098772
      6 H3          0.8620    1.4570    6.3830 hx        1 HAM      0.113668
      7 H4         -0.9110    1.4270    6.3830 hx        1 HAM      0.113668
      8 C2          0.0010   -0.0630    5.0940 c3        1 HAM     -0.111431
      9 H5          0.8950   -0.6920    5.0890 hc        1 HAM      0.069681
     10 H6         -0.8710   -0.7220    5.0890 hc        1 HAM      0.069681
     11 C3         -0.0140    0.8220    3.8300 c3        1 HAM     -0.079422
     12 H7          0.8570    1.4830    3.8390 hc        1 HAM      0.057684
     13 H8         -0.9070    1.4530    3.8390 hc        1 HAM      0.057684
     14 C4          0.0010   -0.0340    2.5460 c3        1 HAM     -0.080422
     15 H9          0.8930   -0.6640    2.5370 hc        1 HAM      0.049686
     16 H10        -0.8700   -0.6940    2.5370 hc        1 HAM      0.049686
     17 C5         -0.0150    0.8530    1.2820 c3        1 HAM     -0.079422
     18 H11         0.8560    1.5140    1.2850 hc        1 HAM      0.045687
     19 H12        -0.9070    1.4840    1.2850 hc        1 HAM      0.045687
     20 C6         -0.0000    0.0000    0.0000 c3        1 HAM     -0.097127
     21 H13         0.8980   -0.6210   -0.0390 hc        1 HAM      0.043688
     22 H14        -0.0110    0.6440   -0.8820 hc        1 HAM      0.043688
     23 H15        -0.8760   -0.6510   -0.0390 hc        1 HAM      0.043686
@<TRIPOS>BOND
     1    1    2 1   
     2    1    3 1   
     3    1    4 1   
     4    1    5 1   
     5    5    6 1   
     6    5    7 1   
     7    5    8 1   
     8    8    9 1   
     9    8   10 1   
    10    8   11 1   
    11   11   12 1   
    12   11   13 1   
    13   11   14 1   
    14   14   15 1   
    15   14   16 1   
    16   14   17 1   
    17   17   18 1   
    18   17   19 1   
    19   17   20 1   
    20   20   21 1   
    21   20   22 1   
    22   20   23 1   
@<TRIPOS>SUBSTRUCTURE
     1 HAM         1 TEMP              0 ****  ****    0 ROOT
