@<TRIPOS>MOLECULE
MHP
   29    28     1     0     0
SMALL
bcc


@<TRIPOS>ATOM
      1 C1          0.4380    0.4840    0.8760 c3        1 MHP     -0.096100
      2 H3          0.2190    1.5540    0.8210 hc        1 MHP      0.040700
      3 H4          1.5210    0.3490    0.8370 hc        1 MHP      0.040700
      4 H5         -0.0000   -0.0000   -0.0000 hc        1 MHP      0.040700
      5 C2         -0.1400   -0.1240    2.1650 c3        1 MHP     -0.079400
      6 H6          0.0680   -1.1970    2.1820 hc        1 MHP      0.042700
      7 H7         -1.2260    0.0010    2.1670 hc        1 MHP      0.042700
      8 C3          0.4620    0.5430    3.4200 c3        1 MHP     -0.080400
      9 H8          1.5470    0.4170    3.4130 hc        1 MHP      0.046200
     10 H9          0.2530    1.6150    3.3980 hc        1 MHP      0.046200
     11 C4         -0.1190   -0.0690    4.7130 c3        1 MHP     -0.080400
     12 H10         0.0890   -1.1410    4.7330 hc        1 MHP      0.049200
     13 H11        -1.2050    0.0570    4.7190 hc        1 MHP      0.049200
     14 C5          0.4840    0.5970    5.9670 c3        1 MHP     -0.079400
     15 H12         1.5700    0.4690    5.9610 hc        1 MHP      0.055700
     16 H13         0.2780    1.6700    5.9380 hc        1 MHP      0.055700
     17 C6         -0.0980   -0.0160    7.2610 c3        1 MHP     -0.109400
     18 H14         0.0760   -1.0940    7.2430 hc        1 MHP      0.069200
     19 H15        -1.1810    0.1360    7.2870 hc        1 MHP      0.069200
     20 C7          0.5480    0.5790    8.5330 c3        1 MHP      0.128500
     21 H16         0.3310    1.6510    8.5670 hx        1 MHP      0.111700
     22 C8          2.0710    0.3830    8.4640 c3        1 MHP     -0.138100
     23 H17         2.3340   -0.6770    8.4280 hc        1 MHP      0.082700
     24 H18         2.4800    0.8660    7.5730 hc        1 MHP      0.082700
     25 H19         2.5590    0.8300    9.3340 hc        1 MHP      0.082700
     26 N1          0.0000   -0.0000    9.8060 n4        1 MHP     -0.847600
     27 H1         -1.0150    0.1650    9.8960 hn        1 MHP      0.458133
     28 H2          0.4510    0.4210   10.6330 hn        1 MHP      0.458133
     29 HN11        0.1560   -1.0190    9.8550 hn        1 MHP      0.458134
@<TRIPOS>BOND
     1    1    2 1   
     2    1    3 1   
     3    1    4 1   
     4    1    5 1   
     5    5    6 1   
     6    5    7 1   
     7    5    8 1   
     8    8    9 1   
     9    8   10 1   
    10    8   11 1   
    11   11   12 1   
    12   11   13 1   
    13   11   14 1   
    14   14   15 1   
    15   14   16 1   
    16   14   17 1   
    17   17   18 1   
    18   17   19 1   
    19   17   20 1   
    20   20   21 1   
    21   20   22 1   
    22   20   26 1   
    23   22   23 1   
    24   22   24 1   
    25   22   25 1   
    26   26   27 1   
    27   26   28 1   
    28   26   29 1   
@<TRIPOS>SUBSTRUCTURE
     1 MHP         1 TEMP              0 ****  ****    0 ROOT
