@<TRIPOS>MOLECULE
NMB
   20    19     1     0     0
SMALL
bcc


@<TRIPOS>ATOM
      1 C1          0.0000    0.0000    0.0000 c3        1 NMB     -0.101100
      2 H14         0.5510    0.3470   -0.8780 hc        1 NMB      0.053367
      3 H3         -0.0660   -1.0900   -0.0460 hc        1 NMB      0.053367
      4 H4         -1.0110    0.4110   -0.0460 hc        1 NMB      0.053367
      5 C2          0.7130    0.4490    1.2880 c3        1 NMB     -0.076400
      6 H5          0.7900    1.5400    1.2960 hc        1 NMB      0.055700
      7 H6          1.7300    0.0470    1.2960 hc        1 NMB      0.055700
      8 C3         -0.0450   -0.0280    2.5430 c3        1 NMB     -0.112400
      9 H7         -1.0610    0.3750    2.5340 hc        1 NMB      0.068700
     10 H8         -0.1200   -1.1190    2.5340 hc        1 NMB      0.068700
     11 C4          0.6800    0.4280    3.8240 c3        1 NMB      0.099800
     12 H9          0.7460    1.5190    3.8480 hx        1 NMB      0.109700
     13 H10         1.6920    0.0160    3.8480 hx        1 NMB      0.109700
     14 N1          0.0000    0.0000    5.1030 n4        1 NMB     -0.759000
     15 H1         -0.0870   -1.0320    5.1280 hn        1 NMB      0.454800
     16 H2         -0.9690    0.3670    5.1280 hn        1 NMB      0.454800
     17 C5          0.7790    0.4910    6.3030 c3        1 NMB      0.077100
     18 H11         0.8290    1.5830    6.2660 hx        1 NMB      0.111367
     19 H12         0.2660    0.1670    7.2120 hx        1 NMB      0.111367
     20 H13         1.7860    0.0650    6.2660 hx        1 NMB      0.111365
@<TRIPOS>BOND
     1    1    2 1   
     2    1    3 1   
     3    1    4 1   
     4    1    5 1   
     5    5    6 1   
     6    5    7 1   
     7    5    8 1   
     8    8    9 1   
     9    8   10 1   
    10    8   11 1   
    11   11   12 1   
    12   11   13 1   
    13   11   14 1   
    14   14   15 1   
    15   14   16 1   
    16   14   17 1   
    17   17   18 1   
    18   17   19 1   
    19   17   20 1   
@<TRIPOS>SUBSTRUCTURE
     1 NMB         1 TEMP              0 ****  ****    0 ROOT
