@<TRIPOS>MOLECULE
Cpptraj
  126   132     1     0     0
SMALL
No Charge or Current Charge


@<TRIPOS>ATOM
      1 C1          22.2560    14.9930    34.9050 C.3        1 MGO       0.304529
      2 H1          22.1970    13.8970    34.7610 H          1 MGO       0.090782
      3 O1          20.9530    15.5550    35.2840 O.3        1 MGO      -0.453070
      4 C2          23.2430    15.2820    36.0320 C.3        1 MGO       0.092199
      5 H2          24.2190    14.8490    35.7930 H          1 MGO       0.102926
      6 O2          22.7430    14.7140    37.2540 O.3        1 MGO      -0.586639
      7 HO2         21.7890    14.5610    37.1730 H          1 MGO       0.425065
      8 C3          23.3690    16.7740    36.2550 C.3        1 MGO       0.093211
      9 H3          22.4130    17.1670    36.6140 H          1 MGO       0.064468
     10 O3          24.3910    16.9630    37.2460 O.3        1 MGO      -0.592567
     11 HO3         24.2930    16.2430    37.8840 H          1 MGO       0.421017
     12 C4          23.7690    17.4910    34.9730 C.3        1 MGO       0.127621
     13 H4          24.8030    17.2350    34.7270 H          1 MGO       0.080661
     14 C5          22.8380    17.1260    33.8020 C.3        1 MGO       0.104343
     15 H5          21.8420    17.4990    34.0470 H          1 MGO       0.068516
     16 O5          22.7510    15.6450    33.6800 O.3        1 MGO      -0.427383
     17 C6          23.1810    17.7120    32.4250 C.3        1 MGO       0.141081
     18 H61         22.6520    18.6580    32.2860 H          1 MGO       0.057384
     19 H62         22.8620    17.0280    31.6340 H          1 MGO       0.057384
     20 O6          24.5890    17.9550    32.3090 O.3        1 MGO      -0.593555
     21 HO6         24.7640    18.8520    32.6210 H          1 MGO       0.422027
     22 C1          16.8860    14.7550    34.9240 C.3        2 MGO       0.304529
     23 H1          15.9070    14.2580    34.7820 H          2 MGO       0.090782
     24 O1          16.7210    16.1660    35.2980 O.3        2 MGO      -0.453070
     25 C2          17.6300    14.0470    36.0510 C.3        2 MGO       0.092199
     26 H2          17.7430    12.9850    35.8140 H          2 MGO       0.102926
     27 O2          16.8910    14.2010    37.2730 O.3        2 MGO      -0.586639
     28 HO2         16.2810    14.9500    37.1910 H          2 MGO       0.425065
     29 C3          18.9860    14.6860    36.2700 C.3        2 MGO       0.093211
     30 H3          18.8490    15.7110    36.6260 H          2 MGO       0.064468
     31 O3          19.6640    13.8970    37.2620 O.3        2 MGO      -0.592567
     32 HO3         18.9910    13.6250    37.9020 H          2 MGO       0.421017
     33 C4          19.8050    14.6940    34.9870 C.3        2 MGO       0.127621
     34 H4          20.1000    13.6700    34.7440 H          2 MGO       0.080661
     35 C5          19.0220    15.3140    33.8140 C.3        2 MGO       0.104343
     36 H5          18.8480    16.3640    34.0570 H          2 MGO       0.068516
     37 O5          17.6960    14.6480    33.6970 O.3        2 MGO      -0.427383
     38 C6          19.6990    15.3060    32.4370 C.3        2 MGO       0.141081
     39 H61         20.2540    16.2350    32.2930 H          2 MGO       0.057384
     40 H62         18.9460    15.2370    31.6480 H          2 MGO       0.057384
     41 O6          20.6120    14.2070    32.3230 O.3        2 MGO      -0.593555
     42 HO6         21.4790    14.5050    32.6320 H          2 MGO       0.422027
     43 C1          13.9950    19.2870    34.9330 C.3        3 MGO       0.304529
     44 H1          13.0740    19.8850    34.7900 H          3 MGO       0.090782
     45 O1          15.1340    20.1350    35.3030 O.3        3 MGO      -0.453070
     46 C2          13.7560    18.2920    36.0630 C.3        3 MGO       0.092199
     47 H2          12.8920    17.6610    35.8300 H          3 MGO       0.102926
     48 O2          13.5200    19.0110    37.2840 O.3        3 MGO      -0.586639
     49 HO2         13.8640    19.9140    37.1990 H          3 MGO       0.425065
     50 C3          14.9870    17.4360    36.2830 C.3        3 MGO       0.093211
     51 H3          15.8060    18.0690    36.6360 H          3 MGO       0.064468
     52 O3          14.6440    16.4590    37.2790 O.3        3 MGO      -0.592567
     53 HO3         14.0730    16.9070    37.9170 H          3 MGO       0.421017
     54 C4          15.4020    16.7280    35.0010 C.3        3 MGO       0.127621
     55 H4          14.6620    15.9600    34.7600 H          3 MGO       0.080661
     56 C5          15.5440    17.7130    33.8260 C.3        3 MGO       0.104343
     57 H5          16.3670    18.3890    34.0650 H          3 MGO       0.068516
     58 O5          14.3060    18.5280    33.7070 O.3        3 MGO      -0.427383
     59 C6          15.8740    17.1190    32.4490 C.3        3 MGO       0.141081
     60 H61         16.9570    17.1030    32.3050 H          3 MGO       0.057384
     61 H62         15.4380    17.7350    31.6600 H          3 MGO       0.057384
     62 O6          15.3790    15.7780    32.3390 O.3        3 MGO      -0.593555
     63 HO6         16.0710    15.1790    32.6500 H          3 MGO       0.422027
     64 C1          16.4720    24.0560    34.9250 C.3        4 MGO       0.304529
     65 H1          16.5310    25.1530    34.7800 H          4 MGO       0.090782
     66 O1          17.7780    23.4950    35.2940 O.3        4 MGO      -0.453070
     67 C2          15.4930    23.7690    36.0580 C.3        4 MGO       0.092199
     68 H2          14.5160    24.2020    35.8250 H          4 MGO       0.102926
     69 O2          16.0010    24.3360    37.2760 O.3        4 MGO      -0.586639
     70 HO2         16.9550    24.4890    37.1890 H          4 MGO       0.425065
     71 C3          15.3690    22.2760    36.2820 C.3        4 MGO       0.093211
     72 H3          16.3270    21.8840    36.6350 H          4 MGO       0.064468
     73 O3          14.3530    22.0870    37.2800 O.3        4 MGO      -0.592567
     74 HO3         14.4560    22.8070    37.9170 H          4 MGO       0.421017
     75 C4          14.9610    21.5600    35.0030 C.3        4 MGO       0.127621
     76 H4          13.9260    21.8150    34.7630 H          4 MGO       0.080661
     77 C5          15.8830    21.9240    33.8260 C.3        4 MGO       0.104343
     78 H5          16.8810    21.5510    34.0640 H          4 MGO       0.068516
     79 O5          15.9690    23.4040    33.7020 O.3        4 MGO      -0.427383
     80 C6          15.5310    21.3380    32.4510 C.3        4 MGO       0.141081
     81 H61         16.0580    20.3920    32.3080 H          4 MGO       0.057384
     82 H62         15.8440    22.0220    31.6580 H          4 MGO       0.057384
     83 O6          14.1230    21.0960    32.3440 O.3        4 MGO      -0.593555
     84 HO6         13.9500    20.1980    32.6570 H          4 MGO       0.422027
     85 C1          21.8420    24.2950    34.9060 C.3        5 MGO       0.304529
     86 H1          22.8210    24.7920    34.7570 H          5 MGO       0.090782
     87 O1          22.0090    22.8840    35.2800 O.3        5 MGO      -0.453070
     88 C2          21.1070    25.0030    36.0390 C.3        5 MGO       0.092199
     89 H2          20.9910    26.0650    35.8030 H          5 MGO       0.102926
     90 O2          21.8540    24.8490    37.2560 O.3        5 MGO      -0.586639
     91 HO2         22.4630    24.1000    37.1700 H          5 MGO       0.425065
     92 C3          19.7520    24.3650    36.2670 C.3        5 MGO       0.093211
     93 H3          19.8920    23.3390    36.6230 H          5 MGO       0.064468
     94 O3          19.0810    25.1530    37.2640 O.3        5 MGO      -0.592567
     95 HO3         19.7570    25.4260    37.8990 H          5 MGO       0.421017
     96 C4          18.9240    24.3570    34.9890 C.3        5 MGO       0.127621
     97 H4          18.6280    25.3800    34.7480 H          5 MGO       0.080661
     98 C5          19.6990    23.7360    33.8120 C.3        5 MGO       0.104343
     99 H5          19.8760    22.6860    34.0530 H          5 MGO       0.068516
    100 O5          21.0230    24.4010    33.6850 O.3        5 MGO      -0.427383
    101 C6          19.0130    23.7450    32.4390 C.3        5 MGO       0.141081
    102 H61         18.4570    22.8140    32.3000 H          5 MGO       0.057384
    103 H62         19.7600    23.8130    31.6450 H          5 MGO       0.057384
    104 O6          18.0980    24.8430    32.3310 O.3        5 MGO      -0.593555
    105 HO6         17.2360    24.5450    32.6470 H          5 MGO       0.422027
    106 C1          24.7340    19.7630    34.8970 C.3        6 MGO       0.304529
    107 H1          25.6540    19.1650    34.7470 H          6 MGO       0.090782
    108 O1          23.5970    18.9150    35.2750 O.3        6 MGO      -0.453070
    109 C2          24.9810    20.7590    36.0250 C.3        6 MGO       0.092199
    110 H2          25.8430    21.3890    35.7860 H          6 MGO       0.102926
    111 O2          25.2240    20.0380    37.2440 O.3        6 MGO      -0.586639
    112 HO2         24.8790    19.1360    37.1620 H          6 MGO       0.425065
    113 C3          23.7510    21.6140    36.2530 C.3        6 MGO       0.093211
    114 H3          22.9340    20.9800    36.6120 H          6 MGO       0.064468
    115 O3          24.1010    22.5920    37.2460 O.3        6 MGO      -0.592567
    116 HO3         24.6760    22.1440    37.8820 H          6 MGO       0.421017
    117 C4          23.3280    22.3210    34.9740 C.3        6 MGO       0.127621
    118 H4          24.0660    23.0900    34.7290 H          6 MGO       0.080661
    119 C5          23.1770    21.3370    33.8010 C.3        6 MGO       0.104343
    120 H5          22.3550    20.6600    34.0450 H          6 MGO       0.068516
    121 O5          24.4150    20.5220    33.6740 O.3        6 MGO      -0.427383
    122 C6          22.8370    21.9310    32.4260 C.3        6 MGO       0.141081
    123 H61         21.7530    21.9470    32.2890 H          6 MGO       0.057384
    124 H62         23.2690    21.3150    31.6330 H          6 MGO       0.057384
    125 O6          23.3320    23.2720    32.3130 O.3        6 MGO      -0.593555
    126 HO6         22.6430    23.8720    32.6280 H          6 MGO       0.422027
@<TRIPOS>BOND
     1    17    20 1   
     2    14    16 1   
     3    14    17 1   
     4    12    14 1   
     5    12   108 1   
     6     8    10 1   
     7     8    12 1   
     8     4     6 1   
     9     4     8 1   
    10     3    33 1   
    11     1     3 1   
    12     1     4 1   
    13     1    16 1   
    14    38    41 1   
    15    35    37 1   
    16    35    38 1   
    17    33    35 1   
    18    29    31 1   
    19    29    33 1   
    20    25    27 1   
    21    25    29 1   
    22    24    54 1   
    23    22    24 1   
    24    22    25 1   
    25    22    37 1   
    26    59    62 1   
    27    56    58 1   
    28    56    59 1   
    29    54    56 1   
    30    50    52 1   
    31    50    54 1   
    32    46    48 1   
    33    46    50 1   
    34    45    75 1   
    35    43    45 1   
    36    43    46 1   
    37    43    58 1   
    38    80    83 1   
    39    77    79 1   
    40    77    80 1   
    41    75    77 1   
    42    71    73 1   
    43    71    75 1   
    44    67    69 1   
    45    67    71 1   
    46    66    96 1   
    47    64    66 1   
    48    64    67 1   
    49    64    79 1   
    50   101   104 1   
    51    98   100 1   
    52    98   101 1   
    53    96    98 1   
    54    92    94 1   
    55    92    96 1   
    56    88    90 1   
    57    88    92 1   
    58    87   117 1   
    59    85    87 1   
    60    85    88 1   
    61    85   100 1   
    62   122   125 1   
    63   119   121 1   
    64   119   122 1   
    65   117   119 1   
    66   113   115 1   
    67   113   117 1   
    68   109   111 1   
    69   109   113 1   
    70   106   108 1   
    71   106   109 1   
    72   106   121 1   
    73    20    21 1   
    74    17    18 1   
    75    17    19 1   
    76    14    15 1   
    77    12    13 1   
    78    10    11 1   
    79     8     9 1   
    80     6     7 1   
    81     4     5 1   
    82     1     2 1   
    83    41    42 1   
    84    38    39 1   
    85    38    40 1   
    86    35    36 1   
    87    33    34 1   
    88    31    32 1   
    89    29    30 1   
    90    27    28 1   
    91    25    26 1   
    92    22    23 1   
    93    62    63 1   
    94    59    60 1   
    95    59    61 1   
    96    56    57 1   
    97    54    55 1   
    98    52    53 1   
    99    50    51 1   
   100    48    49 1   
   101    46    47 1   
   102    43    44 1   
   103    83    84 1   
   104    80    81 1   
   105    80    82 1   
   106    77    78 1   
   107    75    76 1   
   108    73    74 1   
   109    71    72 1   
   110    69    70 1   
   111    67    68 1   
   112    64    65 1   
   113   104   105 1   
   114   101   102 1   
   115   101   103 1   
   116    98    99 1   
   117    96    97 1   
   118    94    95 1   
   119    92    93 1   
   120    90    91 1   
   121    88    89 1   
   122    85    86 1   
   123   125   126 1   
   124   122   123 1   
   125   122   124 1   
   126   119   120 1   
   127   117   118 1   
   128   115   116 1   
   129   113   114 1   
   130   111   112 1   
   131   109   110 1   
   132   106   107 1   
@<TRIPOS>SUBSTRUCTURE
     1 MGO         1 TEMP              0 ****  ****    0 ROOT
