@<TRIPOS>MOLECULE
Cpptraj
   20    19     1     0     0
SMALL
No Charge or Current Charge


@<TRIPOS>ATOM
      1 C1          19.1820    19.4350    32.4370 C.3        1 NMB      -0.101100
      2 H14         19.7340    19.7790    31.5590 H          1 NMB       0.053367
      3 H3          19.1110    18.3460    32.3910 H          1 NMB       0.053367
      4 H4          18.1730    19.8510    32.3910 H          1 NMB       0.053367
      5 C2          19.8970    19.8810    33.7250 C.3        1 NMB      -0.076400
      6 H5          19.9790    20.9710    33.7330 H          1 NMB       0.055700
      7 H6          20.9120    19.4740    33.7330 H          1 NMB       0.055700
      8 C3          19.1370    19.4070    34.9800 C.3        1 NMB      -0.112400
      9 H7          18.1230    19.8150    34.9710 H          1 NMB       0.068700
     10 H8          19.0570    18.3170    34.9710 H          1 NMB       0.068700
     11 C4          19.8640    19.8600    36.2610 C.3        1 NMB       0.099800
     12 H9          19.9350    20.9500    36.2850 H          1 NMB       0.109700
     13 H10         20.8740    19.4430    36.2850 H          1 NMB       0.109700
     14 N1          19.1820    19.4350    37.5400 N.4        1 NMB      -0.759000
     15 H1          19.0900    18.4030    37.5650 H          1 NMB       0.454800
     16 H2          18.2150    19.8070    37.5650 H          1 NMB       0.454800
     17 C5          19.9640    19.9220    38.7400 C.3        1 NMB       0.077100
     18 H11         20.0190    21.0140    38.7030 H          1 NMB       0.111367
     19 H12         19.4490    19.6010    39.6490 H          1 NMB       0.111367
     20 H13         20.9680    19.4910    38.7030 H          1 NMB       0.111365
@<TRIPOS>BOND
     1    14    17 1   
     2    11    14 1   
     3     8    11 1   
     4     5     8 1   
     5     1     5 1   
     6    17    18 1   
     7    17    19 1   
     8    17    20 1   
     9    14    15 1   
    10    14    16 1   
    11    11    12 1   
    12    11    13 1   
    13     8     9 1   
    14     8    10 1   
    15     5     6 1   
    16     5     7 1   
    17     1     2 1   
    18     1     3 1   
    19     1     4 1   
@<TRIPOS>SUBSTRUCTURE
     1 NMB         1 TEMP              0 ****  ****    0 ROOT
