@<TRIPOS>MOLECULE
Cpptraj
  126   132     1     0     0
SMALL
No Charge or Current Charge


@<TRIPOS>ATOM
      1 C1          14.6700    16.9100    33.6420 C.3        1 MGO       0.304529
      2 H1          13.5790    17.0340    33.4970 H          1 MGO       0.090782
      3 O1          15.3090    18.1780    34.0160 O.3        1 MGO      -0.453070
      4 C2          14.8990    15.9110    34.7710 C.3        1 MGO       0.092199
      5 H2          14.4080    14.9620    34.5360 H          1 MGO       0.102926
      6 O2          14.3630    16.4490    35.9920 O.3        1 MGO      -0.586639
      7 HO2         14.2670    17.4100    35.9080 H          1 MGO       0.425065
      8 C3          16.3810    15.6970    34.9950 C.3        1 MGO       0.093211
      9 H3          16.8300    16.6280    35.3510 H          1 MGO       0.064468
     10 O3          16.5090    14.6680    35.9890 O.3        1 MGO      -0.592567
     11 HO3         15.7960    14.8110    36.6270 H          1 MGO       0.421017
     12 C4          17.0720    15.2500    33.7150 C.3        1 MGO       0.127621
     13 H4          16.7550    14.2330    33.4720 H          1 MGO       0.080661
     14 C5          16.7640    16.1970    32.5400 C.3        1 MGO       0.104343
     15 H5          17.1960    17.1700    32.7820 H          1 MGO       0.068516
     16 O5          15.2910    16.3720    32.4180 O.3        1 MGO      -0.427383
     17 C6          17.3280    15.8150    31.1640 C.3        1 MGO       0.141081
     18 H61         18.3040    16.2850    31.0240 H          1 MGO       0.057384
     19 H62         16.6640    16.1720    30.3730 H          1 MGO       0.057384
     20 O6          17.4850    14.3940    31.0530 O.3        1 MGO      -0.593555
     21 HO6         18.3700    14.1670    31.3650 H          1 MGO       0.422027
     22 C1          14.7550    22.2840    33.6410 C.3        2 MGO       0.304529
     23 H1          14.3170    23.2920    33.4960 H          2 MGO       0.090782
     24 O1          16.1730    22.3650    34.0150 O.3        2 MGO      -0.453070
     25 C2          14.0040    21.5880    34.7710 C.3        2 MGO       0.092199
     26 H2          12.9370    21.5390    34.5350 H          2 MGO       0.102926
     27 O2          14.2020    22.3210    35.9910 O.3        2 MGO      -0.586639
     28 HO2         14.9860    22.8850    35.9070 H          2 MGO       0.425065
     29 C3          14.5600    20.1970    34.9950 C.3        2 MGO       0.093211
     30 H3          15.5910    20.2740    35.3510 H          2 MGO       0.064468
     31 O3          13.7320    19.5710    35.9890 O.3        2 MGO      -0.592567
     32 HO3         13.5010    20.2610    36.6270 H          2 MGO       0.421017
     33 C4          14.5180    19.3740    33.7150 C.3        2 MGO       0.127621
     34 H4          13.4790    19.1410    33.4720 H          2 MGO       0.080661
     35 C5          15.1840    20.1150    32.5400 C.3        2 MGO       0.104343
     36 H5          16.2430    20.2270    32.7820 H          2 MGO       0.068516
     37 O5          14.5990    21.4780    32.4170 O.3        2 MGO      -0.427383
     38 C6          15.1350    19.4350    31.1640 C.3        2 MGO       0.141081
     39 H61         16.0290    18.8250    31.0230 H          2 MGO       0.057384
     40 H62         15.1120    20.1880    30.3730 H          2 MGO       0.057384
     41 O6          13.9830    18.5890    31.0530 O.3        2 MGO      -0.593555
     42 HO6         14.2280    17.7070    31.3660 H          2 MGO       0.422027
     43 C1          19.4520    24.8980    33.6410 C.3        3 MGO       0.304529
     44 H1          20.1040    25.7810    33.4950 H          3 MGO       0.090782
     45 O1          20.2300    23.7110    34.0150 O.3        3 MGO      -0.453070
     46 C2          18.4730    25.2010    34.7700 C.3        3 MGO       0.092199
     47 H2          17.8960    26.1000    34.5340 H          3 MGO       0.102926
     48 O2          19.2060    25.3970    35.9900 O.3        3 MGO      -0.586639
     49 HO2         20.0860    24.9990    35.9060 H          3 MGO       0.425065
     50 C3          17.5450    24.0240    34.9940 C.3        3 MGO       0.093211
     51 H3          18.1280    23.1690    35.3500 H          3 MGO       0.064468
     52 O3          16.5900    24.4280    35.9890 O.3        3 MGO      -0.592567
     53 HO3         17.0720    24.9740    36.6250 H          3 MGO       0.421017
     54 C4          16.8130    23.6480    33.7140 C.3        3 MGO       0.127621
     55 H4          16.0910    24.4320    33.4700 H          3 MGO       0.080661
     56 C5          17.7880    23.4420    32.5390 C.3        3 MGO       0.104343
     57 H5          18.4130    22.5810    32.7810 H          3 MGO       0.068516
     58 O5          18.6750    24.6290    32.4160 O.3        3 MGO      -0.427383
     59 C6          17.1750    23.1440    31.1640 C.3        3 MGO       0.141081
     60 H61         17.0940    22.0640    31.0230 H          3 MGO       0.057384
     61 H62         17.8150    23.5400    30.3730 H          3 MGO       0.057384
     62 O6          15.8660    23.7180    31.0520 O.3        3 MGO      -0.593555
     63 HO6         15.2260    23.0650    31.3650 H          3 MGO       0.422027
     64 C1          24.0640    22.1390    33.6420 C.3        4 MGO       0.304529
     65 H1          25.1550    22.0140    33.4960 H          4 MGO       0.090782
     66 O1          23.4250    20.8710    34.0150 O.3        4 MGO      -0.453070
     67 C2          23.8360    23.1380    34.7710 C.3        4 MGO       0.092199
     68 H2          24.3270    24.0870    34.5350 H          4 MGO       0.102926
     69 O2          24.3720    22.6010    35.9900 O.3        4 MGO      -0.586639
     70 HO2         24.4670    21.6390    35.9070 H          4 MGO       0.425065
     71 C3          22.3530    23.3520    34.9950 C.3        4 MGO       0.093211
     72 H3          21.9050    22.4200    35.3510 H          4 MGO       0.064468
     73 O3          22.2260    24.3810    35.9890 O.3        4 MGO      -0.592567
     74 HO3         22.9380    24.2370    36.6260 H          4 MGO       0.421017
     75 C4          21.6630    23.7980    33.7140 C.3        4 MGO       0.127621
     76 H4          21.9800    24.8150    33.4710 H          4 MGO       0.080661
     77 C5          21.9710    22.8510    32.5400 C.3        4 MGO       0.104343
     78 H5          21.5390    21.8790    32.7820 H          4 MGO       0.068516
     79 O5          23.4430    22.6760    32.4170 O.3        4 MGO      -0.427383
     80 C6          21.4070    23.2330    31.1640 C.3        4 MGO       0.141081
     81 H61         20.4300    22.7640    31.0230 H          4 MGO       0.057384
     82 H62         22.0700    22.8770    30.3730 H          4 MGO       0.057384
     83 O6          21.2490    24.6530    31.0520 O.3        4 MGO      -0.593555
     84 HO6         20.3640    24.8810    31.3650 H          4 MGO       0.422027
     85 C1          23.9800    16.7650    33.6410 C.3        5 MGO       0.304529
     86 H1          24.4170    15.7570    33.4950 H          5 MGO       0.090782
     87 O1          22.5620    16.6840    34.0150 O.3        5 MGO      -0.453070
     88 C2          24.7310    17.4600    34.7710 C.3        5 MGO       0.092199
     89 H2          25.7980    17.5100    34.5350 H          5 MGO       0.102926
     90 O2          24.5320    16.7280    35.9910 O.3        5 MGO      -0.586639
     91 HO2         23.7480    16.1650    35.9070 H          5 MGO       0.425065
     92 C3          24.1750    18.8520    34.9950 C.3        5 MGO       0.093211
     93 H3          23.1430    18.7750    35.3510 H          5 MGO       0.064468
     94 O3          25.0030    19.4770    35.9890 O.3        5 MGO      -0.592567
     95 HO3         25.2340    18.7880    36.6260 H          5 MGO       0.421017
     96 C4          24.2160    19.6740    33.7140 C.3        5 MGO       0.127621
     97 H4          25.2560    19.9080    33.4720 H          5 MGO       0.080661
     98 C5          23.5510    18.9330    32.5400 C.3        5 MGO       0.104343
     99 H5          22.4920    18.8210    32.7810 H          5 MGO       0.068516
    100 O5          24.1350    17.5710    32.4170 O.3        5 MGO      -0.427383
    101 C6          23.6000    19.6140    31.1640 C.3        5 MGO       0.141081
    102 H61         22.7050    20.2240    31.0230 H          5 MGO       0.057384
    103 H62         23.6220    18.8610    30.3720 H          5 MGO       0.057384
    104 O6          24.7510    20.4600    31.0530 O.3        5 MGO      -0.593555
    105 HO6         24.5060    21.3400    31.3650 H          5 MGO       0.422027
    106 C1          19.2830    14.1500    33.6420 C.3        6 MGO       0.304529
    107 H1          18.6300    13.2670    33.4950 H          6 MGO       0.090782
    108 O1          18.5040    15.3370    34.0160 O.3        6 MGO      -0.453070
    109 C2          20.2620    13.8480    34.7700 C.3        6 MGO       0.092199
    110 H2          20.8390    12.9490    34.5350 H          6 MGO       0.102926
    111 O2          19.5280    13.6520    35.9910 O.3        6 MGO      -0.586639
    112 HO2         18.6480    14.0500    35.9070 H          6 MGO       0.425065
    113 C3          21.1890    15.0250    34.9950 C.3        6 MGO       0.093211
    114 H3          20.6060    15.8790    35.3510 H          6 MGO       0.064468
    115 O3          22.1440    14.6200    35.9890 O.3        6 MGO      -0.592567
    116 HO3         21.6630    14.0750    36.6260 H          6 MGO       0.421017
    117 C4          21.9210    15.4000    33.7140 C.3        6 MGO       0.127621
    118 H4          22.6430    14.6160    33.4710 H          6 MGO       0.080661
    119 C5          20.9470    15.6060    32.5400 C.3        6 MGO       0.104343
    120 H5          20.3200    16.4680    32.7820 H          6 MGO       0.068516
    121 O5          20.0590    14.4190    32.4170 O.3        6 MGO      -0.427383
    122 C6          21.5600    15.9050    31.1640 C.3        6 MGO       0.141081
    123 H61         21.6400    16.9850    31.0230 H          6 MGO       0.057384
    124 H62         20.9190    15.5080    30.3730 H          6 MGO       0.057384
    125 O6          22.8690    15.3300    31.0530 O.3        6 MGO      -0.593555
    126 HO6         23.5090    15.9830    31.3650 H          6 MGO       0.422027
@<TRIPOS>BOND
     1    17    20 1   
     2    14    16 1   
     3    14    17 1   
     4    12    14 1   
     5    12   108 1   
     6     8    10 1   
     7     8    12 1   
     8     4     6 1   
     9     4     8 1   
    10     3    33 1   
    11     1     3 1   
    12     1     4 1   
    13     1    16 1   
    14    38    41 1   
    15    35    37 1   
    16    35    38 1   
    17    33    35 1   
    18    29    31 1   
    19    29    33 1   
    20    25    27 1   
    21    25    29 1   
    22    24    54 1   
    23    22    24 1   
    24    22    25 1   
    25    22    37 1   
    26    59    62 1   
    27    56    58 1   
    28    56    59 1   
    29    54    56 1   
    30    50    52 1   
    31    50    54 1   
    32    46    48 1   
    33    46    50 1   
    34    45    75 1   
    35    43    45 1   
    36    43    46 1   
    37    43    58 1   
    38    80    83 1   
    39    77    79 1   
    40    77    80 1   
    41    75    77 1   
    42    71    73 1   
    43    71    75 1   
    44    67    69 1   
    45    67    71 1   
    46    66    96 1   
    47    64    66 1   
    48    64    67 1   
    49    64    79 1   
    50   101   104 1   
    51    98   100 1   
    52    98   101 1   
    53    96    98 1   
    54    92    94 1   
    55    92    96 1   
    56    88    90 1   
    57    88    92 1   
    58    87   117 1   
    59    85    87 1   
    60    85    88 1   
    61    85   100 1   
    62   122   125 1   
    63   119   121 1   
    64   119   122 1   
    65   117   119 1   
    66   113   115 1   
    67   113   117 1   
    68   109   111 1   
    69   109   113 1   
    70   106   108 1   
    71   106   109 1   
    72   106   121 1   
    73    20    21 1   
    74    17    18 1   
    75    17    19 1   
    76    14    15 1   
    77    12    13 1   
    78    10    11 1   
    79     8     9 1   
    80     6     7 1   
    81     4     5 1   
    82     1     2 1   
    83    41    42 1   
    84    38    39 1   
    85    38    40 1   
    86    35    36 1   
    87    33    34 1   
    88    31    32 1   
    89    29    30 1   
    90    27    28 1   
    91    25    26 1   
    92    22    23 1   
    93    62    63 1   
    94    59    60 1   
    95    59    61 1   
    96    56    57 1   
    97    54    55 1   
    98    52    53 1   
    99    50    51 1   
   100    48    49 1   
   101    46    47 1   
   102    43    44 1   
   103    83    84 1   
   104    80    81 1   
   105    80    82 1   
   106    77    78 1   
   107    75    76 1   
   108    73    74 1   
   109    71    72 1   
   110    69    70 1   
   111    67    68 1   
   112    64    65 1   
   113   104   105 1   
   114   101   102 1   
   115   101   103 1   
   116    98    99 1   
   117    96    97 1   
   118    94    95 1   
   119    92    93 1   
   120    90    91 1   
   121    88    89 1   
   122    85    86 1   
   123   125   126 1   
   124   122   123 1   
   125   122   124 1   
   126   119   120 1   
   127   117   118 1   
   128   115   116 1   
   129   113   114 1   
   130   111   112 1   
   131   109   110 1   
   132   106   107 1   
@<TRIPOS>SUBSTRUCTURE
     1 MGO         1 TEMP              0 ****  ****    0 ROOT
