@<TRIPOS>MOLECULE
Cpptraj generated mol2 file.
   26    25     1     0     0
SMALL
USER_CHARGES


@<TRIPOS>ATOM
      1 N1         19.5370   19.1800   38.8150 n4         1 NMH     -0.759223
      2 H1         20.2390   18.4180   38.8440 hn         1 NMH      0.454667
      3 H18        18.6120   18.7140   38.8440 hn         1 NMH      0.454667
      4 C1         19.6790   19.9620   37.5310 c3         1 NMH      0.099771
      5 H2         20.6670   20.4300   37.5490 hx         1 NMH      0.109668
      6 H3         18.9200   20.7480   37.5490 hx         1 NMH      0.109668
      7 C2         19.5240   19.1100   36.2570 c3         1 NMH     -0.111433
      8 H4         20.2780   18.3180   36.2520 hc         1 NMH      0.068680
      9 H5         18.5400   18.6340   36.2520 hc         1 NMH      0.068680
     10 C3         19.6830   19.9830   34.9950 c3         1 NMH     -0.078423
     11 H6         20.6670   20.4600   35.0040 hc         1 NMH      0.056683
     12 H7         18.9310   20.7760   35.0040 hc         1 NMH      0.056683
     13 C4         19.5300   19.1430   33.7100 c3         1 NMH     -0.080424
     14 H8         20.2820   18.3500   33.7000 hc         1 NMH      0.048686
     15 H9         18.5470   18.6660   33.7000 hc         1 NMH      0.048686
     16 C5         19.6890   20.0170   32.4480 c3         1 NMH     -0.079423
     17 H10        20.6730   20.4940   32.4520 hc         1 NMH      0.044687
     18 H11        18.9370   20.8100   32.4520 hc         1 NMH      0.044687
     19 C6         19.5370   19.1800   31.1640 c3         1 NMH     -0.097128
     20 H12        20.2960   18.3950   31.1230 hc         1 NMH      0.042687
     21 H13        19.6530   19.8150   30.2830 hc         1 NMH      0.042687
     22 H14        18.5500   18.7130   31.1230 hc         1 NMH      0.042687
     23 C7         19.7040   20.0950   40.0080 c3         1 NMH      0.078077
     24 H15        18.9330   20.8700   39.9680 hx         1 NMH      0.111334
     25 H16        19.5960   19.5050   40.9220 hx         1 NMH      0.111334
     26 H17        20.6980   20.5490   39.9680 hx         1 NMH      0.111335
@<TRIPOS>BOND
    1    16    19 1
    2    13    16 1
    3    10    13 1
    4     7    10 1
    5     4     7 1
    6     1     4 1
    7     1    23 1
    8    23    24 1
    9    23    25 1
   10    23    26 1
   11    19    20 1
   12    19    21 1
   13    19    22 1
   14    16    17 1
   15    16    18 1
   16    13    14 1
   17    13    15 1
   18    10    11 1
   19    10    12 1
   20     7     8 1
   21     7     9 1
   22     4     5 1
   23     4     6 1
   24     1     2 1
   25     1     3 1
@<TRIPOS>SUBSTRUCTURE
      1 NMH               1 ****               0 ****  **** 
