@<TRIPOS>MOLECULE
Cpptraj generated mol2 file.
   22    21     1     0     0
SMALL
USER_CHARGES


@<TRIPOS>ATOM
      1 C1         19.6830   20.3040   38.4600 c          1 HEP      0.907600
      2 O1         19.7260   21.5240   38.4440 o          1 HEP     -0.853800
      3 O2         19.6620   19.7110   39.5260 o          1 HEP     -0.853800
      4 C2         19.6540   19.4880   37.1640 c3         1 HEP     -0.193400
      5 H1         18.7530   18.8660   37.1480 hc         1 HEP      0.018700
      6 H2         20.5110   18.8040   37.1480 hc         1 HEP      0.018700
      7 C3         19.6850   20.3510   35.8810 c3         1 HEP     -0.065400
      8 H3         18.8240   21.0250   35.8710 hc         1 HEP      0.043700
      9 H4         20.5910   20.9630   35.8710 hc         1 HEP      0.043700
     10 C4         19.6540   19.4690   34.6150 c3         1 HEP     -0.078400
     11 H5         18.7500   18.8550   34.6200 hc         1 HEP      0.025700
     12 H6         20.5130   18.7930   34.6200 hc         1 HEP      0.025700
     13 C5         19.6840   20.3300   33.3340 c3         1 HEP     -0.078400
     14 H7         18.8250   21.0050   33.3280 hc         1 HEP      0.035700
     15 H8         20.5880   20.9440   33.3280 hc         1 HEP      0.035700
     16 C6         19.6530   19.4480   32.0680 c3         1 HEP     -0.081400
     17 H9         18.7490   18.8330   32.0680 hc         1 HEP      0.032700
     18 H10        20.5120   18.7720   32.0680 hc         1 HEP      0.032700
     19 C7         19.6830   20.3040   30.7880 c3         1 HEP     -0.089100
     20 H11        18.8190   20.9710   30.7490 hc         1 HEP      0.024367
     21 H12        19.6610   19.6620   29.9040 hc         1 HEP      0.024367
     22 H13        20.5920   20.9080   30.7490 hc         1 HEP      0.024366
@<TRIPOS>BOND
    1    16    19 1
    2    13    16 1
    3    10    13 1
    4     7    10 1
    5     4     7 1
    6     1     2 1
    7     1     3 1
    8     1     4 1
    9    19    20 1
   10    19    21 1
   11    19    22 1
   12    16    17 1
   13    16    18 1
   14    13    14 1
   15    13    15 1
   16    10    11 1
   17    10    12 1
   18     7     8 1
   19     7     9 1
   20     4     5 1
   21     4     6 1
@<TRIPOS>SUBSTRUCTURE
      1 HEP               1 ****               0 ****  **** 
