@<TRIPOS>MOLECULE
Cpptraj
  147   154     1     0     0
SMALL
No Charge or Current Charge


@<TRIPOS>ATOM
      1 C1          13.8440    18.2710    33.2720 C.3        1 MGO       0.304529
      2 H1          12.7860    18.5710    33.1430 H          1 MGO       0.090782
      3 O1          14.6980    19.4260    33.5750 O.3        1 MGO      -0.453070
      4 C2          13.9180    17.2870    34.4360 C.3        1 MGO       0.092199
      5 H2          13.2440    16.4470    34.2520 H          1 MGO       0.102926
      6 O2          13.5420    17.9500    35.6560 O.3        1 MGO      -0.586639
      7 HO2         13.5910    18.9130    35.5400 H          1 MGO       0.425065
      8 C3          15.3350    16.7850    34.6250 C.3        1 MGO       0.093211
      9 H3          15.9820    17.6160    34.9200 H          1 MGO       0.064468
     10 O3          15.2830    15.7880    35.6590 O.3        1 MGO      -0.592567
     11 HO3         14.6410    16.1040    36.3090 H          1 MGO       0.421017
     12 C4          15.8440    16.1550    33.3390 C.3        1 MGO       0.127621
     13 H4          15.2600    15.2560    33.1270 H          1 MGO       0.080661
     14 C5          15.7330    17.1310    32.1580 C.3        1 MGO       0.104343
     15 H5          16.3600    17.9980    32.3800 H          1 MGO       0.068516
     16 O5          14.3260    17.5990    32.0490 O.3        1 MGO      -0.427383
     17 C6          16.1930    16.6120    30.7870 C.3        1 MGO       0.141081
     18 H61         17.2580    16.8170    30.6560 H          1 MGO       0.057384
     19 H62         15.6480    17.1240    29.9910 H          1 MGO       0.057384
     20 O6          15.9830    15.1980    30.6820 O.3        1 MGO      -0.593555
     21 HO6         16.7770    14.7510    31.0030 H          1 MGO       0.422027
     22 C1          14.4520    23.6010    33.2730 C.3        2 MGO       0.304529
     23 H1          14.0270    24.6170    33.1450 H          2 MGO       0.090782
     24 O1          15.8890    23.6540    33.5760 O.3        2 MGO      -0.453070
     25 C2          13.7300    22.9300    34.4380 C.3        2 MGO       0.092199
     26 H2          12.6520    22.9340    34.2530 H          2 MGO       0.102926
     27 O2          14.0140    23.6360    35.6560 O.3        2 MGO      -0.586639
     28 HO2         14.7970    24.1980    35.5410 H          2 MGO       0.425065
     29 C3          14.2210    21.5090    34.6250 C.3        2 MGO       0.093211
     30 H3          15.2740    21.5200    34.9200 H          2 MGO       0.064468
     31 O3          13.4090    20.9280    35.6580 O.3        2 MGO      -0.592567
     32 HO3         13.2560    21.6270    36.3100 H          2 MGO       0.421017
     33 C4          14.0460    20.7180    33.3390 C.3        2 MGO       0.127621
     34 H4          12.9780    20.6140    33.1270 H          2 MGO       0.080661
     35 C5          14.7390    21.4140    32.1580 C.3        2 MGO       0.104343
     36 H5          15.8070    21.4650    32.3810 H          2 MGO       0.068516
     37 O5          14.2280    22.8070    32.0500 O.3        2 MGO      -0.427383
     38 C6          14.6200    20.7320    30.7880 C.3        2 MGO       0.141081
     39 H61         15.4440    20.0270    30.6550 H          2 MGO       0.057384
     40 H62         14.6810    21.4770    29.9910 H          2 MGO       0.057384
     41 O6          13.3830    20.0150    30.6820 O.3        2 MGO      -0.593555
     42 HO6         13.5280    19.1150    31.0030 H          2 MGO       0.422027
     43 C1          19.0000    26.4500    33.2740 C.3        3 MGO       0.304529
     44 H1          19.5290    27.4140    33.1450 H          3 MGO       0.090782
     45 O1          19.9360    25.3590    33.5760 O.3        3 MGO      -0.453070
     46 C2          18.0250    26.5950    34.4380 C.3        3 MGO       0.092199
     47 H2          17.3560    27.4400    34.2540 H          3 MGO       0.102926
     48 O2          18.7540    26.8130    35.6570 O.3        3 MGO      -0.586639
     49 HO2         19.6820    26.5520    35.5410 H          3 MGO       0.425065
     50 C3          17.2200    25.3250    34.6260 C.3        3 MGO       0.093211
     51 H3          17.8860    24.5090    34.9210 H          3 MGO       0.064468
     52 O3          16.2600    25.5980    35.6590 O.3        3 MGO      -0.592567
     53 HO3         16.7110    26.1530    36.3110 H          3 MGO       0.421017
     54 C4          16.4920    24.9700    33.3400 C.3        3 MGO       0.127621
     55 H4          15.7460    25.7410    33.1280 H          3 MGO       0.080661
     56 C5          17.4680    24.8620    32.1590 C.3        3 MGO       0.104343
     57 H5          18.1730    24.0580    32.3810 H          3 MGO       0.068516
     58 O5          18.2380    26.1300    32.0510 O.3        3 MGO      -0.427383
     59 C6          16.8600    24.5300    30.7890 C.3        3 MGO       0.141081
     60 H61         16.8220    23.4460    30.6560 H          3 MGO       0.057384
     61 H62         17.4800    24.9480    29.9910 H          3 MGO       0.057384
     62 O6          15.5280    25.0500    30.6830 O.3        3 MGO      -0.593555
     63 HO6         14.9150    24.3750    31.0040 H          3 MGO       0.422027
     64 C1          24.0620    24.6690    33.2720 C.3        4 MGO       0.304529
     65 H1          25.1460    24.8580    33.1440 H          4 MGO       0.090782
     66 O1          23.7920    23.2580    33.5750 O.3        4 MGO      -0.453070
     67 C2          23.5680    25.5230    34.4370 C.3        4 MGO       0.092199
     68 H2          23.8110    26.5730    34.2520 H          4 MGO       0.102926
     69 O2          24.1940    25.0890    35.6560 O.3        4 MGO      -0.586639
     70 HO2         24.5680    24.2010    35.5400 H          4 MGO       0.425065
     71 C3          22.0740    25.3610    34.6250 C.3        4 MGO       0.093211
     72 H3          21.8510    24.3310    34.9210 H          4 MGO       0.064468
     73 O3          21.6870    26.2810    35.6580 O.3        4 MGO      -0.592567
     74 HO3         22.4040    26.2750    36.3090 H          4 MGO       0.421017
     75 C4          21.3400    25.7080    33.3400 C.3        4 MGO       0.127621
     76 H4          21.4780    26.7710    33.1270 H          4 MGO       0.080661
     77 C5          21.8650    24.8770    32.1590 C.3        4 MGO       0.104343
     78 H5          21.6760    23.8240    32.3810 H          4 MGO       0.068516
     79 O5          23.3370    25.0660    32.0500 O.3        4 MGO      -0.427383
     80 C6          21.2260    25.1450    30.7880 C.3        4 MGO       0.141081
     81 H61         20.3550    24.4990    30.6560 H          4 MGO       0.057384
     82 H62         21.9390    24.9200    29.9910 H          4 MGO       0.057384
     83 O6          20.8020    26.5100    30.6830 O.3        4 MGO      -0.593555
     84 HO6         19.8930    26.5700    31.0050 H          4 MGO       0.422027
     85 C1          25.8260    19.6030    33.2720 C.3        5 MGO       0.304529
     86 H1          26.6490    18.8730    33.1420 H          5 MGO       0.090782
     87 O1          24.5550    18.9320    33.5750 O.3        5 MGO      -0.453070
     88 C2          26.1860    20.5210    34.4360 C.3        5 MGO       0.092199
     89 H2          27.1590    20.9850    34.2510 H          5 MGO       0.102926
     90 O2          26.2380    19.7620    35.6550 O.3        5 MGO      -0.586639
     91 HO2         25.7760    18.9150    35.5400 H          5 MGO       0.425065
     92 C3          25.1270    21.5880    34.6240 C.3        5 MGO       0.093211
     93 H3          24.1830    21.1210    34.9200 H          5 MGO       0.064468
     94 O3          25.6060    22.4640    35.6580 O.3        5 MGO      -0.592567
     95 HO3         26.0480    21.9000    36.3080 H          5 MGO       0.421017
     96 C4          24.9420    22.3770    33.3390 C.3        5 MGO       0.127621
     97 H4          25.8590    22.9330    33.1260 H          5 MGO       0.080661
     98 C5          24.6180    21.4490    32.1580 C.3        5 MGO       0.104343
     99 H5          23.6790    20.9400    32.3810 H          5 MGO       0.068516
    100 O5          25.6840    20.4160    32.0490 O.3        5 MGO      -0.427383
    101 C6          24.4290    22.1160    30.7870 C.3        5 MGO       0.141081
    102 H61         23.3810    22.3940    30.6550 H          5 MGO       0.057384
    103 H62         24.6970    21.4190    29.9900 H          5 MGO       0.057384
    104 O6          25.2320    23.2980    30.6810 O.3        5 MGO      -0.593555
    105 HO6         24.7120    24.0460    31.0040 H          5 MGO       0.422027
    106 C1          22.9650    15.0640    33.2730 C.3        6 MGO       0.304529
    107 H1          22.9080    13.9650    33.1450 H          6 MGO       0.090782
    108 O1          21.6480    15.6390    33.5750 O.3        6 MGO      -0.453070
    109 C2          23.9070    15.3560    34.4370 C.3        6 MGO       0.092199
    110 H2          24.8770    14.8850    34.2530 H          6 MGO       0.102926
    111 O2          23.3450    14.8420    35.6560 O.3        6 MGO      -0.586639
    112 HO2         22.3960    14.6750    35.5410 H          6 MGO       0.425065
    113 C3          24.0810    16.8480    34.6260 C.3        6 MGO       0.093211
    114 H3          23.1270    17.2940    34.9210 H          6 MGO       0.064468
    115 O3          25.0650    17.0200    35.6590 O.3        6 MGO      -0.592567
    116 HO3         24.8990    16.3240    36.3100 H          6 MGO       0.421017
    117 C4          24.5830    17.4850    33.3390 C.3        6 MGO       0.127621
    118 H4          25.5890    17.1150    33.1270 H          6 MGO       0.080661
    119 C5          23.6560    17.1580    32.1590 C.3        6 MGO       0.104343
    120 H5          22.6720    17.5760    32.3800 H          6 MGO       0.068516
    121 O5          23.5130    15.6810    32.0500 O.3        6 MGO      -0.427383
    122 C6          24.0590    17.7210    30.7880 C.3        6 MGO       0.141081
    123 H61         23.6230    18.7140    30.6550 H          6 MGO       0.057384
    124 H62         23.6820    17.0760    29.9910 H          6 MGO       0.057384
    125 O6          25.4850    17.8310    30.6820 O.3        6 MGO      -0.593555
    126 HO6         25.7440    18.7050    31.0030 H          6 MGO       0.422027
    127 C1          17.6310    14.4710    33.2730 C.3        7 MGO       0.304529
    128 H1          16.7370    13.8320    33.1440 H          7 MGO       0.090782
    129 O1          17.2620    15.8590    33.5750 O.3        7 MGO      -0.453070
    130 C2          18.4470    13.9160    34.4380 C.3        7 MGO       0.092199
    131 H2          18.6840    12.8650    34.2530 H          7 MGO       0.102926
    132 O2          17.6960    14.0360    35.6560 O.3        7 MGO      -0.586639
    133 HO2         16.9730    14.6740    35.5410 H          7 MGO       0.425065
    134 C3          19.7230    14.7110    34.6260 C.3        7 MGO       0.093211
    135 H3          19.4770    15.7350    34.9210 H          7 MGO       0.064468
    136 O3          20.4710    14.0500    35.6600 O.3        7 MGO      -0.592567
    137 HO3         19.8230    13.7450    36.3100 H          7 MGO       0.421017
    138 C4          20.5340    14.7160    33.3400 C.3        7 MGO       0.127621
    139 H4          20.8720    13.6980    33.1280 H          7 MGO       0.080661
    140 C5          19.7010    15.2370    32.1580 C.3        7 MGO       0.104343
    141 H5          19.4140    16.2670    32.3810 H          7 MGO       0.068516
    142 O5          18.4580    14.4280    32.0510 O.3        7 MGO      -0.427383
    143 C6          20.3930    15.2730    30.7880 C.3        7 MGO       0.141081
    144 H61         20.8970    16.2320    30.6550 H          7 MGO       0.057384
    145 H62         19.6540    15.1650    29.9910 H          7 MGO       0.057384
    146 O6          21.3680    14.2260    30.6830 O.3        7 MGO      -0.593555
    147 HO6         22.2120    14.5670    31.0050 H          7 MGO       0.422027
@<TRIPOS>BOND
     1    17    20 1   
     2    14    16 1   
     3    14    17 1   
     4    12    14 1   
     5    12   129 1   
     6     8    10 1   
     7     8    12 1   
     8     4     6 1   
     9     4     8 1   
    10     3    33 1   
    11     1     3 1   
    12     1     4 1   
    13     1    16 1   
    14    38    41 1   
    15    35    37 1   
    16    35    38 1   
    17    33    35 1   
    18    29    31 1   
    19    29    33 1   
    20    25    27 1   
    21    25    29 1   
    22    24    54 1   
    23    22    24 1   
    24    22    25 1   
    25    22    37 1   
    26    59    62 1   
    27    56    58 1   
    28    56    59 1   
    29    54    56 1   
    30    50    52 1   
    31    50    54 1   
    32    46    48 1   
    33    46    50 1   
    34    45    75 1   
    35    43    45 1   
    36    43    46 1   
    37    43    58 1   
    38    80    83 1   
    39    77    79 1   
    40    77    80 1   
    41    75    77 1   
    42    71    73 1   
    43    71    75 1   
    44    67    69 1   
    45    67    71 1   
    46    66    96 1   
    47    64    66 1   
    48    64    67 1   
    49    64    79 1   
    50   101   104 1   
    51    98   100 1   
    52    98   101 1   
    53    96    98 1   
    54    92    94 1   
    55    92    96 1   
    56    88    90 1   
    57    88    92 1   
    58    87   117 1   
    59    85    87 1   
    60    85    88 1   
    61    85   100 1   
    62   122   125 1   
    63   119   121 1   
    64   119   122 1   
    65   117   119 1   
    66   113   115 1   
    67   113   117 1   
    68   109   111 1   
    69   109   113 1   
    70   108   138 1   
    71   106   108 1   
    72   106   109 1   
    73   106   121 1   
    74   143   146 1   
    75   140   142 1   
    76   140   143 1   
    77   138   140 1   
    78   134   136 1   
    79   134   138 1   
    80   130   132 1   
    81   130   134 1   
    82   127   129 1   
    83   127   130 1   
    84   127   142 1   
    85    20    21 1   
    86    17    18 1   
    87    17    19 1   
    88    14    15 1   
    89    12    13 1   
    90    10    11 1   
    91     8     9 1   
    92     6     7 1   
    93     4     5 1   
    94     1     2 1   
    95    41    42 1   
    96    38    39 1   
    97    38    40 1   
    98    35    36 1   
    99    33    34 1   
   100    31    32 1   
   101    29    30 1   
   102    27    28 1   
   103    25    26 1   
   104    22    23 1   
   105    62    63 1   
   106    59    60 1   
   107    59    61 1   
   108    56    57 1   
   109    54    55 1   
   110    52    53 1   
   111    50    51 1   
   112    48    49 1   
   113    46    47 1   
   114    43    44 1   
   115    83    84 1   
   116    80    81 1   
   117    80    82 1   
   118    77    78 1   
   119    75    76 1   
   120    73    74 1   
   121    71    72 1   
   122    69    70 1   
   123    67    68 1   
   124    64    65 1   
   125   104   105 1   
   126   101   102 1   
   127   101   103 1   
   128    98    99 1   
   129    96    97 1   
   130    94    95 1   
   131    92    93 1   
   132    90    91 1   
   133    88    89 1   
   134    85    86 1   
   135   125   126 1   
   136   122   123 1   
   137   122   124 1   
   138   119   120 1   
   139   117   118 1   
   140   115   116 1   
   141   113   114 1   
   142   111   112 1   
   143   109   110 1   
   144   106   107 1   
   145   146   147 1   
   146   143   144 1   
   147   143   145 1   
   148   140   141 1   
   149   138   139 1   
   150   136   137 1   
   151   134   135 1   
   152   132   133 1   
   153   130   131 1   
   154   127   128 1   
@<TRIPOS>SUBSTRUCTURE
     1 MGO         1 TEMP              0 ****  ****    0 ROOT
