@<TRIPOS>MOLECULE
Cpptraj generated mol2 file.
   14    14     1     0     0
SMALL
USER_CHARGES


@<TRIPOS>ATOM
      1 C1         19.6970   19.9940   32.6880 ca         1 BEN     -0.161879
      2 H1         19.6970   19.9940   31.5980 ha         1 BEN      0.097073
      3 C2         19.0540   18.9760   33.3860 ca         1 BEN     -0.165876
      4 H2         18.5490   18.1780   32.8420 ha         1 BEN      0.101076
      5 C3         19.0530   18.9750   34.7800 ca         1 BEN     -0.108918
      6 H3         18.5450   18.1710   35.3090 ha         1 BEN      0.148111
      7 C4         19.6970   19.9940   35.4980 ca         1 BEN     -0.123507
      8 C5         20.3410   21.0130   34.7800 ca         1 BEN     -0.108918
      9 H4         20.8490   21.8170   35.3090 ha         1 BEN      0.148111
     10 C6         20.3400   21.0120   33.3860 ca         1 BEN     -0.165876
     11 H5         20.8450   21.8100   32.8420 ha         1 BEN      0.101076
     12 C7         19.6970   19.9940   37.0150 c          1 BEN      0.906879
     13 O1         20.2610   20.8860   37.6270 o          1 BEN     -0.833675
     14 O2         19.1330   19.1020   37.6270 o          1 BEN     -0.833677
@<TRIPOS>BOND
    1    12    13 1
    2    12    14 1
    3     8    10 1
    4     7     8 1
    5     7    12 1
    6     5     7 1
    7     3     5 1
    8     1     3 1
    9     1    10 1
   10    10    11 1
   11     8     9 1
   12     5     6 1
   13     3     4 1
   14     1     2 1
@<TRIPOS>SUBSTRUCTURE
      1 BEN               1 ****               0 ****  **** 
