@<TRIPOS>MOLECULE
Cpptraj
  147   154     1     0     0
SMALL
No Charge or Current Charge


@<TRIPOS>ATOM
      1 C1          16.0150    15.1210    34.2110 C.3        1 MGO       0.304529
      2 H1          14.9530    14.8290    34.0960 H          1 MGO       0.090782
      3 O1          16.1520    16.5620    34.4580 O.3        1 MGO      -0.453070
      4 C2          16.5900    14.3620    35.4030 C.3        1 MGO       0.092199
      5 H2          16.4440    13.2880    35.2600 H          1 MGO       0.102926
      6 O2          15.9300    14.7820    36.6090 O.3        1 MGO      -0.586639
      7 HO2         15.4750    15.6280    36.4620 H          1 MGO       0.425065
      8 C3          18.0630    14.6690    35.5750 C.3        1 MGO       0.093211
      9 H3          18.1900    15.7250    35.8300 H          1 MGO       0.064468
     10 O3          18.5360    13.8270    36.6400 O.3        1 MGO      -0.592567
     11 HO3         17.8250    13.7930    37.2940 H          1 MGO       0.421017
     12 C4          18.8200    14.3420    34.2980 C.3        1 MGO       0.127621
     13 H4          18.7820    13.2630    34.1270 H          1 MGO       0.080661
     14 C5          18.2180    15.0750    33.0900 C.3        1 MGO       0.104343
     15 H5          18.3090    16.1490    33.2710 H          1 MGO       0.068516
     16 O5          16.7700    14.7470    32.9990 O.3        1 MGO      -0.427383
     17 C6          18.8750    14.8150    31.7260 C.3        1 MGO       0.141081
     18 H61         19.6820    15.5340    31.5640 H          1 MGO       0.057384
     19 H62         18.1420    14.9420    30.9270 H          1 MGO       0.057384
     20 O6          19.4230    13.4920    31.6700 O.3        1 MGO      -0.593555
     21 HO6         20.3350    13.5300    31.9870 H          1 MGO       0.422027
     22 C1          13.7890    20.0000    34.0310 C.3        2 MGO       0.304529
     23 H1          12.9020    20.6450    33.8810 H          2 MGO       0.090782
     24 O1          14.9940    20.7960    34.3000 O.3        2 MGO      -0.453070
     25 C2          13.5200    19.0970    35.2330 C.3        2 MGO       0.092199
     26 H2          12.5940    18.5380    35.0720 H          2 MGO       0.102926
     27 O2          13.4030    19.8950    36.4220 O.3        2 MGO      -0.586639
     28 HO2         13.7840    20.7760    36.2710 H          2 MGO       0.425065
     29 C3          14.6740    18.1410    35.4530 C.3        2 MGO       0.093211
     30 H3          15.5720    18.7040    35.7240 H          2 MGO       0.064468
     31 O3          14.2810    17.2640    36.5220 O.3        2 MGO      -0.592567
     32 HO3         13.7920    17.8090    37.1540 H          2 MGO       0.421017
     33 C4          14.9270    17.3240    34.1970 C.3        2 MGO       0.127621
     34 H4          14.0650    16.6770    34.0120 H          2 MGO       0.080661
     35 C5          15.1590    18.2310    32.9790 C.3        2 MGO       0.104343
     36 H5          16.0480    18.8330    33.1760 H          2 MGO       0.068516
     37 O5          14.0020    19.1570    32.8390 O.3        2 MGO      -0.427383
     38 C6          15.4040    17.5330    31.6340 C.3        2 MGO       0.141081
     39 H61         16.4730    17.3490    31.5040 H          2 MGO       0.057384
     40 H62         15.0690    18.1720    30.8130 H          2 MGO       0.057384
     41 O6          14.7130    16.2780    31.5780 O.3        2 MGO      -0.593555
     42 HO6         15.3020    15.5950    31.9240 H          2 MGO       0.422027
     43 C1          16.2180    24.7810    33.8400 C.3        3 MGO       0.304529
     44 H1          16.1740    25.8740    33.6700 H          3 MGO       0.090782
     45 O1          17.5840    24.3400    34.1550 O.3        3 MGO      -0.453070
     46 C2          15.3120    24.4480    35.0220 C.3        3 MGO       0.092199
     47 H2          14.3020    24.8190    34.8270 H          3 MGO       0.102926
     48 O2          15.8280    25.0570    36.2160 O.3        3 MGO      -0.586639
     49 HO2         16.7580    25.3060    36.0880 H          3 MGO       0.425065
     50 C3          15.2770    22.9530    35.2670 C.3        3 MGO       0.093211
     51 H3          16.2690    22.6080    35.5720 H          3 MGO       0.064468
     52 O3          14.3170    22.7310    36.3130 O.3        3 MGO      -0.592567
     53 HO3         14.4200    23.4650    36.9360 H          3 MGO       0.421017
     54 C4          14.8320    22.2240    34.0100 C.3        3 MGO       0.127621
     55 H4          13.7950    22.4920    33.7910 H          3 MGO       0.080661
     56 C5          15.7200    22.5890    32.8110 C.3        3 MGO       0.104343
     57 H5          16.7390    22.2730    33.0420 H          3 MGO       0.068516
     58 O5          15.7260    24.0680    32.6450 O.3        3 MGO      -0.427383
     59 C6          15.3660    21.9390    31.4650 C.3        3 MGO       0.141081
     60 H61         15.8910    20.9870    31.3680 H          3 MGO       0.057384
     61 H62         15.6790    22.5860    30.6410 H          3 MGO       0.057384
     62 O6          13.9560    21.6950    31.3740 O.3        3 MGO      -0.593555
     63 HO6         13.7800    20.8140    31.7300 H          3 MGO       0.422027
     64 C1          21.4740    25.8630    33.7800 C.3        4 MGO       0.304529
     65 H1          22.3050    26.5770    33.6210 H          4 MGO       0.090782
     66 O1          21.9710    24.5260    34.1330 O.3        4 MGO      -0.453070
     67 C2          20.6140    26.3830    34.9280 C.3        4 MGO       0.092199
     68 H2          20.2810    27.4010    34.7060 H          4 MGO       0.102926
     69 O2          21.3780    26.3810    36.1460 O.3        4 MGO      -0.586639
     70 HO2         22.1570    25.8090    36.0490 H          4 MGO       0.425065
     71 C3          19.4180    25.4830    35.1560 C.3        4 MGO       0.093211
     72 H3          19.7590    24.4980    35.4880 H          4 MGO       0.064468
     73 O3          18.6160    26.1120    36.1680 O.3        4 MGO      -0.592567
     74 HO3         19.2350    26.5000    36.8020 H          4 MGO       0.421017
     75 C4          18.6070    25.3530    33.8770 C.3        4 MGO       0.127621
     76 H4          18.1760    26.3260    33.6280 H          4 MGO       0.080661
     77 C5          19.4800    24.8660    32.7110 C.3        4 MGO       0.104343
     78 H5          19.8620    23.8760    32.9700 H          4 MGO       0.068516
     79 O5          20.6440    25.7820    32.5630 O.3        4 MGO      -0.427383
     80 C6          18.7900    24.7140    31.3470 C.3        4 MGO       0.141081
     81 H61         18.3760    23.7070    31.2550 H          4 MGO       0.057384
     82 H62         19.5140    24.8580    30.5410 H          4 MGO       0.057384
     83 O6          17.7230    25.6610    31.2090 O.3        4 MGO      -0.593555
     84 HO6         16.9140    25.2560    31.5500 H          4 MGO       0.422027
     85 C1          25.5970    22.4320    33.8980 C.3        5 MGO       0.304529
     86 H1          26.6780    22.2250    33.7730 H          5 MGO       0.090782
     87 O1          24.8540    21.2150    34.2510 O.3        5 MGO      -0.453070
     88 C2          25.4360    23.4480    35.0250 C.3        5 MGO       0.092199
     89 H2          26.0290    24.3390    34.8030 H          5 MGO       0.102926
     90 O2          25.8750    22.8710    36.2650 O.3        5 MGO      -0.586639
     91 HO2         25.9160    21.9040    36.1870 H          5 MGO       0.425065
     92 C3          23.9790    23.8240    35.2030 C.3        5 MGO       0.093211
     93 H3          23.4120    22.9490    35.5350 H          5 MGO       0.064468
     94 O3          23.9410    24.8610    36.1980 O.3        5 MGO      -0.592567
     95 HO3         24.6120    24.6300    36.8560 H          5 MGO       0.421017
     96 C4          23.4100    24.3550    33.8980 C.3        5 MGO       0.127621
     97 H4          23.9080    25.2950    33.6480 H          5 MGO       0.080661
     98 C5          23.6060    23.3480    32.7540 C.3        5 MGO       0.104343
     99 H5          23.0640    22.4370    33.0150 H          5 MGO       0.068516
    100 O5          25.0520    23.0090    32.6540 O.3        5 MGO      -0.427383
    101 C6          23.0960    23.7690    31.3680 C.3        5 MGO       0.141081
    102 H61         22.0550    23.4630    31.2510 H          5 MGO       0.057384
    103 H62         23.6830    23.2800    30.5870 H          5 MGO       0.057384
    104 O6          23.1750    25.1920    31.2080 O.3        5 MGO      -0.593555
    105 HO6         22.3440    25.5760    31.5180 H          5 MGO       0.422027
    106 C1          25.4840    17.0710    34.1050 C.3        6 MGO       0.304529
    107 H1          26.0010    16.0960    34.0130 H          6 MGO       0.090782
    108 O1          24.0600    16.8980    34.4190 O.3        6 MGO      -0.453070
    109 C2          26.1450    17.8510    35.2380 C.3        6 MGO       0.092199
    110 H2          27.2180    17.9400    35.0470 H          6 MGO       0.102926
    111 O2          25.9320    17.1690    36.4850 O.3        6 MGO      -0.586639
    112 HO2         25.2040    16.5320    36.3970 H          6 MGO       0.425065
    113 C3          25.5250    19.2260    35.3760 C.3        6 MGO       0.093211
    114 H3          24.4790    19.1280    35.6780 H          6 MGO       0.064468
    115 O3          26.2830    19.9200    36.3810 O.3        6 MGO      -0.592567
    116 HO3         26.5030    19.2630    37.0570 H          6 MGO       0.421017
    117 C4          25.6230    19.9800    34.0590 C.3        6 MGO       0.127621
    118 H4          26.6750    20.1740    33.8370 H          6 MGO       0.080661
    119 C5          24.9930    19.1780    32.9110 C.3        6 MGO       0.104343
    120 H5          23.9360    19.0380    33.1420 H          6 MGO       0.068516
    121 O5          25.6310    17.8350    32.8520 O.3        6 MGO      -0.427383
    122 C6          25.0440    19.8150    31.5150 C.3        6 MGO       0.141081
    123 H61         24.1590    20.4360    31.3610 H          6 MGO       0.057384
    124 H62         25.0510    19.0380    30.7470 H          6 MGO       0.057384
    125 O6          26.2090    20.6400    31.3730 O.3        6 MGO      -0.593555
    126 HO6         25.9820    21.5340    31.6610 H          6 MGO       0.422027
    127 C1          21.2190    13.8180    34.2440 C.3        7 MGO       0.304529
    128 H1          20.7820    12.8040    34.1560 H          7 MGO       0.090782
    129 O1          20.1880    14.8280    34.5120 O.3        7 MGO      -0.453070
    130 C2          22.2080    13.8070    35.4080 C.3        7 MGO       0.092199
    131 H2          22.9520    13.0210    35.2500 H          7 MGO       0.102926
    132 O2          21.5060    13.5700    36.6380 O.3        7 MGO      -0.586639
    133 HO2         20.5580    13.7400    36.5190 H          7 MGO       0.425065
    134 C3          22.8930    15.1520    35.5410 C.3        7 MGO       0.093211
    135 H3          22.1550    15.9140    35.8100 H          7 MGO       0.064468
    136 O3          23.8780    15.0100    36.5780 O.3        7 MGO      -0.592567
    137 HO3         23.4820    14.4410    37.2520 H          7 MGO       0.421017
    138 C4          23.5810    15.5250    34.2380 C.3        7 MGO       0.127621
    139 H4          24.3940    14.8190    34.0500 H          7 MGO       0.080661
    140 C5          22.5950    15.4960    33.0590 C.3        7 MGO       0.104343
    141 H5          21.8190    16.2400    33.2570 H          7 MGO       0.068516
    142 O5          21.9460    14.1600    33.0050 O.3        7 MGO      -0.427383
    143 C6          23.1650    15.8310    31.6740 C.3        7 MGO       0.141081
    144 H61         23.1020    16.9070    31.5000 H          7 MGO       0.057384
    145 H62         22.5840    15.3280    30.8980 H          7 MGO       0.057384
    146 O6          24.5390    15.4320    31.5790 O.3        7 MGO      -0.593555
    147 HO6         25.0880    16.1720    31.8710 H          7 MGO       0.422027
@<TRIPOS>BOND
     1    17    20 1   
     2    14    16 1   
     3    14    17 1   
     4    12    14 1   
     5    12   129 1   
     6     8    10 1   
     7     8    12 1   
     8     4     6 1   
     9     4     8 1   
    10     3    33 1   
    11     1     3 1   
    12     1     4 1   
    13     1    16 1   
    14    38    41 1   
    15    35    37 1   
    16    35    38 1   
    17    33    35 1   
    18    29    31 1   
    19    29    33 1   
    20    25    27 1   
    21    25    29 1   
    22    24    54 1   
    23    22    24 1   
    24    22    25 1   
    25    22    37 1   
    26    59    62 1   
    27    56    58 1   
    28    56    59 1   
    29    54    56 1   
    30    50    52 1   
    31    50    54 1   
    32    46    48 1   
    33    46    50 1   
    34    45    75 1   
    35    43    45 1   
    36    43    46 1   
    37    43    58 1   
    38    80    83 1   
    39    77    79 1   
    40    77    80 1   
    41    75    77 1   
    42    71    73 1   
    43    71    75 1   
    44    67    69 1   
    45    67    71 1   
    46    66    96 1   
    47    64    66 1   
    48    64    67 1   
    49    64    79 1   
    50   101   104 1   
    51    98   100 1   
    52    98   101 1   
    53    96    98 1   
    54    92    94 1   
    55    92    96 1   
    56    88    90 1   
    57    88    92 1   
    58    87   117 1   
    59    85    87 1   
    60    85    88 1   
    61    85   100 1   
    62   122   125 1   
    63   119   121 1   
    64   119   122 1   
    65   117   119 1   
    66   113   115 1   
    67   113   117 1   
    68   109   111 1   
    69   109   113 1   
    70   108   138 1   
    71   106   108 1   
    72   106   109 1   
    73   106   121 1   
    74   143   146 1   
    75   140   142 1   
    76   140   143 1   
    77   138   140 1   
    78   134   136 1   
    79   134   138 1   
    80   130   132 1   
    81   130   134 1   
    82   127   129 1   
    83   127   130 1   
    84   127   142 1   
    85    20    21 1   
    86    17    18 1   
    87    17    19 1   
    88    14    15 1   
    89    12    13 1   
    90    10    11 1   
    91     8     9 1   
    92     6     7 1   
    93     4     5 1   
    94     1     2 1   
    95    41    42 1   
    96    38    39 1   
    97    38    40 1   
    98    35    36 1   
    99    33    34 1   
   100    31    32 1   
   101    29    30 1   
   102    27    28 1   
   103    25    26 1   
   104    22    23 1   
   105    62    63 1   
   106    59    60 1   
   107    59    61 1   
   108    56    57 1   
   109    54    55 1   
   110    52    53 1   
   111    50    51 1   
   112    48    49 1   
   113    46    47 1   
   114    43    44 1   
   115    83    84 1   
   116    80    81 1   
   117    80    82 1   
   118    77    78 1   
   119    75    76 1   
   120    73    74 1   
   121    71    72 1   
   122    69    70 1   
   123    67    68 1   
   124    64    65 1   
   125   104   105 1   
   126   101   102 1   
   127   101   103 1   
   128    98    99 1   
   129    96    97 1   
   130    94    95 1   
   131    92    93 1   
   132    90    91 1   
   133    88    89 1   
   134    85    86 1   
   135   125   126 1   
   136   122   123 1   
   137   122   124 1   
   138   119   120 1   
   139   117   118 1   
   140   115   116 1   
   141   113   114 1   
   142   111   112 1   
   143   109   110 1   
   144   106   107 1   
   145   146   147 1   
   146   143   144 1   
   147   143   145 1   
   148   140   141 1   
   149   138   139 1   
   150   136   137 1   
   151   134   135 1   
   152   132   133 1   
   153   130   131 1   
   154   127   128 1   
@<TRIPOS>SUBSTRUCTURE
     1 MGO         1 TEMP              0 ****  ****    0 ROOT
