@<TRIPOS>MOLECULE
Cpptraj
   16    15     1     0     0
SMALL
No Charge or Current Charge


@<TRIPOS>ATOM
      1 C1          19.9150    20.2270    37.1840 C.2        1 PNT       0.907045
      2 O1          20.1250    21.4290    37.1570 O.co2      1 PNT      -0.854322
      3 O2          19.8130    19.6450    38.2510 O.co2      1 PNT      -0.854322
      4 C2          19.7740    19.4170    35.8950 C.3        1 PNT      -0.193518
      5 H1          18.7950    18.9270    35.8860 H          1 PNT       0.018189
      6 H2          20.5280    18.6240    35.8860 H          1 PNT       0.018189
      7 C3          19.9210    20.2630    34.6100 C.3        1 PNT      -0.065440
      8 H3          19.1610    21.0480    34.5970 H          1 PNT       0.043174
      9 H4          20.9030    20.7440    34.5970 H          1 PNT       0.043174
     10 C4          19.7690    19.3890    33.3460 C.3        1 PNT      -0.081450
     11 H5          18.7890    18.9050    33.3490 H          1 PNT       0.024685
     12 H6          20.5270    18.6020    33.3490 H          1 PNT       0.024685
     13 C5          19.9150    20.2270    32.0630 C.3        1 PNT      -0.086153
     14 H7          19.1510    21.0070    32.0220 H          1 PNT       0.018689
     15 H8          19.8040    19.5920    31.1820 H          1 PNT       0.018689
     16 H9          20.8980    20.7020    32.0220 H          1 PNT       0.018686
@<TRIPOS>BOND
     1    10    13 1   
     2     7    10 1   
     3     4     7 1   
     4     1     2 1   
     5     1     3 1   
     6     1     4 1   
     7    13    14 1   
     8    13    15 1   
     9    13    16 1   
    10    10    11 1   
    11    10    12 1   
    12     7     8 1   
    13     7     9 1   
    14     4     5 1   
    15     4     6 1   
@<TRIPOS>SUBSTRUCTURE
     1 PNT         1 TEMP              0 ****  ****    0 ROOT
