@<TRIPOS>MOLECULE
Cpptraj generated mol2 file.
  147   154     7     0     0
SMALL
USER_CHARGES


@<TRIPOS>ATOM
      1 C1         24.4520   16.3170   33.7830 c3         1 MGO      0.304529
      2 H1         25.5500   16.2480   33.9130 h2         1 MGO      0.090782
      3 O1         24.0330   17.6920   33.4810 os         1 MGO     -0.453070
      4 C2         24.0540   15.4150   32.6190 c3         1 MGO      0.092199
      5 H2         24.4100   14.3980   32.8040 h1         1 MGO      0.102926
      6 O2         24.6300   15.9140   31.4000 oh         1 MGO     -0.586639
      7 HO2        24.9050   16.8390   31.5160 ho         1 MGO      0.425065
      8 C3         22.5520   15.4140   32.4300 c3         1 MGO      0.093211
      9 H3         22.2190   16.4130   32.1350 h1         1 MGO      0.064468
     10 O3         22.2670   14.4570   31.3970 oh         1 MGO     -0.592567
     11 HO3        22.9780   14.5410   30.7470 ho         1 MGO      0.421017
     12 C4         21.8610   14.9900   33.7160 c3         1 MGO      0.127621
     13 H4         22.1120   13.9480   33.9290 h1         1 MGO      0.080661
     14 C5         22.2920   15.8730   34.8980 c3         1 MGO      0.104343
     15 H5         21.9900   16.8990   34.6750 h1         1 MGO      0.068516
     16 O5         23.7740   15.8450   35.0060 os         1 MGO     -0.427383
     17 C6         21.6850   15.5370   36.2680 c3         1 MGO      0.141081
     18 H61        20.7490   16.0860   36.4000 h1         1 MGO      0.057384
     19 H62        22.3690   15.8380   37.0650 h1         1 MGO      0.057384
     20 O6         21.4110   14.1340   36.3730 oh         1 MGO     -0.593555
     21 HO6        20.5140   13.9770   36.0520 ho         1 MGO      0.422027
     22 C1         25.6570   21.5460   33.7830 c3         2 MGO      0.304529
     23 H1         26.3960   22.3610   33.9110 h2         2 MGO      0.090782
     24 O1         24.3200   22.0750   33.4800 os         2 MGO     -0.453070
     25 C2         26.1140   20.6720   32.6180 c3         2 MGO      0.092199
     26 H2         27.1310   20.3160   32.8030 h1         2 MGO      0.102926
     27 O2         26.0820   21.4320   31.3990 oh         2 MGO     -0.586639
     28 HO2        25.5310   22.2240   31.5150 ho         2 MGO      0.425065
     29 C3         25.1770   19.4960   32.4310 c3         2 MGO      0.093211
     30 H3         24.1880   19.8580   32.1350 h1         2 MGO      0.064468
     31 O3         25.7480   18.6770   31.3980 oh         2 MGO     -0.592567
     32 HO3        26.1260   19.2860   30.7460 ho         2 MGO      0.421017
     33 C4         25.0780   18.6920   33.7160 c3         2 MGO      0.127621
     34 H4         26.0500   18.2380   33.9290 h1         2 MGO      0.080661
     35 C5         24.6570   19.5790   34.8980 c3         2 MGO      0.104343
     36 H5         23.6670   19.9830   34.6750 h1         2 MGO      0.068516
     37 O5         25.6040   20.7220   35.0060 os         2 MGO     -0.427383
     38 C6         24.5410   18.8970   36.2680 c3         2 MGO      0.141081
     39 H61        23.5300   18.5070   36.4010 h1         2 MGO      0.057384
     40 H62        24.7330   19.6190   37.0650 h1         2 MGO      0.057384
     41 O6         25.4680   17.8080   36.3740 oh         2 MGO     -0.593555
     42 HO6        25.0310   17.0080   36.0520 ho         2 MGO      0.422027
     43 C1         22.3200   25.7480   33.7820 c3         3 MGO      0.304529
     44 H1         22.1430   26.8330   33.9110 h2         3 MGO      0.090782
     45 O1         21.0730   25.0320   33.4800 os         3 MGO     -0.453070
     46 C2         23.2870   25.5600   32.6170 c3         3 MGO      0.092199
     47 H2         24.2000   26.1330   32.8010 h1         3 MGO      0.102926
     48 O2         22.6730   26.0090   31.3990 oh         3 MGO     -0.586639
     49 HO2        21.7110   26.0720   31.5140 ho         3 MGO      0.425065
     50 C3         23.6230   24.0940   32.4290 c3         3 MGO      0.093211
     51 H3         22.7230   23.5470   32.1350 h1         3 MGO      0.064468
     52 O3         24.6190   24.0310   31.3960 oh         3 MGO     -0.592567
     53 HO3        24.3780   24.7050   30.7450 ho         3 MGO      0.421017
     54 C4         24.1910   23.5160   33.7160 c3         3 MGO      0.127621
     55 H4         25.1510   23.9940   33.9270 h1         3 MGO      0.080661
     56 C5         23.2350   23.7400   34.8970 c3         3 MGO      0.104343
     57 H5         22.3010   23.2180   34.6740 h1         3 MGO      0.068516
     58 O5         22.9310   25.1930   35.0050 os         3 MGO     -0.427383
     59 C6         23.6960   23.2240   36.2670 c3         3 MGO      0.141081
     60 H61        23.3710   22.1900   36.4000 h1         3 MGO      0.057384
     61 H62        23.2520   23.8250   37.0650 h1         3 MGO      0.057384
     62 O6         25.1260   23.2700   36.3730 oh         3 MGO     -0.593555
     63 HO6        25.4790   22.4300   36.0510 ho         3 MGO      0.422027
     64 C1         16.9540   25.7580   33.7840 c3         4 MGO      0.304529
     65 H1         15.9950   26.2970   33.9120 h2         4 MGO      0.090782
     66 O1         16.7370   24.3370   33.4810 os         4 MGO     -0.453070
     67 C2         17.7050   26.3980   32.6190 c3         4 MGO      0.092199
     68 H2         17.8250   27.4690   32.8040 h1         4 MGO      0.102926
     69 O2         16.9700   26.1980   31.3990 oh         4 MGO     -0.586639
     70 HO2        16.3200   25.4850   31.5160 ho         4 MGO      0.425065
     71 C3         19.0580   25.7470   32.4300 c3         4 MGO      0.093211
     72 H3         18.9260   24.7020   32.1350 h1         4 MGO      0.064468
     73 O3         19.7300   26.4850   31.3970 oh         4 MGO     -0.592567
     74 HO3        19.0530   26.7190   30.7470 ho         4 MGO      0.421017
     75 C4         19.8660   25.8290   33.7150 c3         4 MGO      0.127621
     76 H4         20.0910   26.8770   33.9280 h1         4 MGO      0.080661
     77 C5         19.0940   25.2210   34.8970 c3         4 MGO      0.104343
     78 H5         18.9210   24.1660   34.6750 h1         4 MGO      0.068516
     79 O5         17.7700   25.8900   35.0060 os         4 MGO     -0.427383
     80 C6         19.7860   25.2610   36.2670 c3         4 MGO      0.141081
     81 H61        20.3920   24.3600   36.4000 h1         4 MGO      0.057384
     82 H62        19.0390   25.2860   37.0650 h1         4 MGO      0.057384
     83 O6         20.6410   26.4060   36.3730 oh         4 MGO     -0.593555
     84 HO6        21.5180   26.1590   36.0510 ho         4 MGO      0.422027
     85 C1         13.6010   21.5700   33.7840 c3         5 MGO      0.304529
     86 H1         12.5810   21.1560   33.9130 h2         5 MGO      0.090782
     87 O1         14.5750   20.5140   33.4810 os         5 MGO     -0.453070
     88 C2         13.5680   22.5550   32.6190 c3         5 MGO      0.092199
     89 H2         12.8060   23.3180   32.8050 h1         5 MGO      0.102926
     90 O2         13.2660   21.8570   31.4010 oh         5 MGO     -0.586639
     91 HO2        13.4190   20.9050   31.5160 ho         5 MGO      0.425065
     92 C3         14.9220   23.2090   32.4310 c3         5 MGO      0.093211
     93 H3         15.6560   22.4530   32.1360 h1         5 MGO      0.064468
     94 O3         14.7630   24.1940   31.3980 oh         5 MGO     -0.592567
     95 HO3        14.1580   23.8100   30.7470 ho         5 MGO      0.421017
     96 C4         15.3590   23.8910   33.7170 c3         5 MGO      0.127621
     97 H4         14.6810   24.7210   33.9300 h1         5 MGO      0.080661
     98 C5         15.3550   22.9070   34.8980 c3         5 MGO      0.104343
     99 H5         16.0710   22.1140   34.6750 h1         5 MGO      0.068516
    100 O5         14.0060   22.2900   35.0070 os         5 MGO     -0.427383
    101 C6         15.7560   23.4730   36.2680 c3         5 MGO      0.141081
    102 H61        16.8370   23.3860   36.4000 h1         5 MGO      0.057384
    103 H62        15.2700   22.9050   37.0660 h1         5 MGO      0.057384
    104 O6         15.3930   24.8560   36.3740 oh         5 MGO     -0.593555
    105 HO6        16.1340   25.3870   36.0520 ho         5 MGO      0.422027
    106 C1         14.7840   16.3360   33.7830 c3         6 MGO      0.304529
    107 H1         14.4720   15.2810   33.9110 h2         6 MGO      0.090782
    108 O1         16.2180   16.4400   33.4800 os         6 MGO     -0.453070
    109 C2         13.9930   16.9260   32.6180 c3         6 MGO      0.092199
    110 H2         12.9220   16.8050   32.8030 h1         6 MGO      0.102926
    111 O2         14.3520   16.2540   31.3990 oh         6 MGO     -0.586639
    112 HO2        15.1910   15.7800   31.5140 ho         6 MGO      0.425065
    113 C3         14.3270   18.3910   32.4300 c3         6 MGO      0.093211
    114 H3         15.3750   18.4930   32.1350 h1         6 MGO      0.064468
    115 O3         13.4570   18.8820   31.3970 oh         6 MGO     -0.592567
    116 HO3        13.3810   18.1700   30.7460 ho         6 MGO      0.421017
    117 C4         14.0660   19.1580   33.7170 c3         6 MGO      0.127621
    118 H4         12.9950   19.1450   33.9280 h1         6 MGO      0.080661
    119 C5         14.8320   18.5420   34.8970 c3         6 MGO      0.104343
    120 H5         15.8980   18.6070   34.6750 h1         6 MGO      0.068516
    121 O5         14.4740   17.1010   35.0060 os         6 MGO     -0.427383
    122 C6         14.6390   19.2070   36.2670 c3         6 MGO      0.141081
    123 H61        15.3810   19.9970   36.4000 h1         6 MGO      0.057384
    124 H62        14.7800   18.4730   37.0650 h1         6 MGO      0.057384
    125 O6         13.3310   19.7860   36.3730 oh         6 MGO     -0.593555
    126 HO6        13.3780   20.6960   36.0530 ho         6 MGO      0.422027
    127 C1         19.6140   13.9990   33.7830 c3         7 MGO      0.304529
    128 H1         20.2450   13.0970   33.9110 h2         7 MGO      0.090782
    129 O1         20.4260   15.1840   33.4800 os         7 MGO     -0.453070
    130 C2         18.6600   13.7480   32.6170 c3         7 MGO      0.092199
    131 H2         18.0870   12.8350   32.8030 h1         7 MGO      0.102926
    132 O2         19.4090   13.6100   31.3990 oh         7 MGO     -0.586639
    133 HO2        20.3030   13.9710   31.5150 ho         7 MGO      0.425065
    134 C3         17.7230   14.9230   32.4300 c3         7 MGO      0.093211
    135 H3         18.2960   15.8060   32.1340 h1         7 MGO      0.064468
    136 O3         16.7970   14.5480   31.3960 oh         7 MGO     -0.592567
    137 HO3        17.3060   14.0450   30.7460 ho         7 MGO      0.421017
    138 C4         16.9600   15.1980   33.7160 c3         7 MGO      0.127621
    139 H4         16.3020   14.3510   33.9280 h1         7 MGO      0.080661
    140 C5         17.9190   15.4110   34.8980 c3         7 MGO      0.104343
    141 H5         18.5330   16.2870   34.6740 h1         7 MGO      0.068516
    142 O5         18.8210   14.2340   35.0050 os         7 MGO     -0.427383
    143 C6         17.2780   15.6760   36.2680 c3         7 MGO      0.141081
    144 H61        17.1230   16.7480   36.4010 h1         7 MGO      0.057384
    145 H62        17.9400   15.3280   37.0640 h1         7 MGO      0.057384
    146 O6         16.0100   15.0140   36.3730 oh         7 MGO     -0.593555
    147 HO6        15.3280   15.6170   36.0510 ho         7 MGO      0.422027
@<TRIPOS>BOND
    1    17    20 1
    2    14    16 1
    3    14    17 1
    4    12    14 1
    5    12   129 1
    6     8    10 1
    7     8    12 1
    8     4     6 1
    9     4     8 1
   10     3    33 1
   11     1     3 1
   12     1     4 1
   13     1    16 1
   14    38    41 1
   15    35    37 1
   16    35    38 1
   17    33    35 1
   18    29    31 1
   19    29    33 1
   20    25    27 1
   21    25    29 1
   22    24    54 1
   23    22    24 1
   24    22    25 1
   25    22    37 1
   26    59    62 1
   27    56    58 1
   28    56    59 1
   29    54    56 1
   30    50    52 1
   31    50    54 1
   32    46    48 1
   33    46    50 1
   34    45    75 1
   35    43    45 1
   36    43    46 1
   37    43    58 1
   38    80    83 1
   39    77    79 1
   40    77    80 1
   41    75    77 1
   42    71    73 1
   43    71    75 1
   44    67    69 1
   45    67    71 1
   46    66    96 1
   47    64    66 1
   48    64    67 1
   49    64    79 1
   50   101   104 1
   51    98   100 1
   52    98   101 1
   53    96    98 1
   54    92    94 1
   55    92    96 1
   56    88    90 1
   57    88    92 1
   58    87   117 1
   59    85    87 1
   60    85    88 1
   61    85   100 1
   62   122   125 1
   63   119   121 1
   64   119   122 1
   65   117   119 1
   66   113   115 1
   67   113   117 1
   68   109   111 1
   69   109   113 1
   70   108   138 1
   71   106   108 1
   72   106   109 1
   73   106   121 1
   74   143   146 1
   75   140   142 1
   76   140   143 1
   77   138   140 1
   78   134   136 1
   79   134   138 1
   80   130   132 1
   81   130   134 1
   82   127   129 1
   83   127   130 1
   84   127   142 1
   85    20    21 1
   86    17    18 1
   87    17    19 1
   88    14    15 1
   89    12    13 1
   90    10    11 1
   91     8     9 1
   92     6     7 1
   93     4     5 1
   94     1     2 1
   95    41    42 1
   96    38    39 1
   97    38    40 1
   98    35    36 1
   99    33    34 1
  100    31    32 1
  101    29    30 1
  102    27    28 1
  103    25    26 1
  104    22    23 1
  105    62    63 1
  106    59    60 1
  107    59    61 1
  108    56    57 1
  109    54    55 1
  110    52    53 1
  111    50    51 1
  112    48    49 1
  113    46    47 1
  114    43    44 1
  115    83    84 1
  116    80    81 1
  117    80    82 1
  118    77    78 1
  119    75    76 1
  120    73    74 1
  121    71    72 1
  122    69    70 1
  123    67    68 1
  124    64    65 1
  125   104   105 1
  126   101   102 1
  127   101   103 1
  128    98    99 1
  129    96    97 1
  130    94    95 1
  131    92    93 1
  132    90    91 1
  133    88    89 1
  134    85    86 1
  135   125   126 1
  136   122   123 1
  137   122   124 1
  138   119   120 1
  139   117   118 1
  140   115   116 1
  141   113   114 1
  142   111   112 1
  143   109   110 1
  144   106   107 1
  145   146   147 1
  146   143   144 1
  147   143   145 1
  148   140   141 1
  149   138   139 1
  150   136   137 1
  151   134   135 1
  152   132   133 1
  153   130   131 1
  154   127   128 1
@<TRIPOS>SUBSTRUCTURE
      1 MGO               1 ****               0 ****  **** 
      2 MGO              22 ****               0 ****  **** 
      3 MGO              43 ****               0 ****  **** 
      4 MGO              64 ****               0 ****  **** 
      5 MGO              85 ****               0 ****  **** 
      6 MGO             106 ****               0 ****  **** 
      7 MGO             127 ****               0 ****  **** 
