@<TRIPOS>MOLECULE
Cpptraj
   17    17     1     0     0
SMALL
No Charge or Current Charge


@<TRIPOS>ATOM
      1 C1          18.3200    20.1010    38.6700 C.2        1 PHA       0.918165
      2 O1          17.5490    21.0220    38.8910 O.co2      1 PHA      -0.842199
      3 O2          17.9990    18.9450    38.8900 O.co2      1 PHA      -0.842199
      4 C2          19.7090    20.4040    38.1210 C.3        1 PHA      -0.176183
      5 H1          20.4290    19.6650    38.4890 H          1 PHA       0.037182
      6 H2          20.0580    21.3740    38.4890 H          1 PHA       0.037182
      7 C3          19.7080    20.4040    36.6010 C.ar       1 PHA      -0.014307
      8 C4          19.9650    19.2250    35.8950 C.ar       1 PHA      -0.138566
      9 H3          20.1640    18.3010    36.4360 H          1 PHA       0.151928
     10 C5          19.9650    19.2250    34.5010 C.ar       1 PHA      -0.145569
     11 H4          20.1650    18.3030    33.9560 H          1 PHA       0.106450
     12 C6          19.7090    20.4040    33.8040 C.ar       1 PHA      -0.169080
     13 H5          19.7090    20.4030    32.7140 H          1 PHA       0.102951
     14 C7          19.4530    21.5820    34.5010 C.ar       1 PHA      -0.145569
     15 H6          19.2530    22.5030    33.9560 H          1 PHA       0.106450
     16 C8          19.4530    21.5820    35.8950 C.ar       1 PHA      -0.138566
     17 H7          19.2510    22.5050    36.4360 H          1 PHA       0.151930
@<TRIPOS>BOND
     1    14    16 ar  
     2    12    14 ar  
     3    10    12 ar  
     4     8    10 ar  
     5     7     8 ar  
     6     7    16 ar  
     7     4     7 1   
     8     1     2 1   
     9     1     3 1   
    10     1     4 1   
    11    16    17 1   
    12    14    15 1   
    13    12    13 1   
    14    10    11 1   
    15     8     9 1   
    16     4     5 1   
    17     4     6 1   
@<TRIPOS>SUBSTRUCTURE
     1 PHA         1 TEMP              0 ****  ****    0 ROOT
