@<TRIPOS>MOLECULE
Cpptraj generated mol2 file.
  126   132     6     0     0
SMALL
USER_CHARGES


@<TRIPOS>ATOM
      1 C1         23.5930   17.3980   32.5980 c3         1 MGO      0.304529
      2 H1         24.6680   17.6300   32.7310 h2         1 MGO      0.090782
      3 O1         22.8340   18.5880   32.1930 os         1 MGO     -0.453070
      4 C2         23.4560   16.3500   31.4980 c3         1 MGO      0.092199
      5 H2         24.0370   15.4600   31.7560 h1         1 MGO      0.102926
      6 O2         23.9330   16.9020   30.2590 oh         1 MGO     -0.586639
      7 HO2        23.9360   17.8700   30.3160 ho         1 MGO      0.425065
      8 C3         22.0000   15.9890   31.2900 c3         1 MGO      0.093211
      9 H3         21.4630   16.8630   30.9120 h1         1 MGO      0.064468
     10 O3         21.9680   14.9250   30.3260 oh         1 MGO     -0.592567
     11 HO3        22.6610   15.1170   29.6800 ho         1 MGO      0.421017
     12 C4         21.3610   15.5150   32.5880 c3         1 MGO      0.127621
     13 H4         21.7760   14.5400   32.8570 h1         1 MGO      0.080661
     14 C5         21.5820   16.5190   33.7330 c3         1 MGO      0.104343
     15 H5         21.0580   17.4400   33.4680 h1         1 MGO      0.068516
     16 O5         23.0320   16.8380   33.8410 os         1 MGO     -0.427383
     17 C6         21.0630   16.1250   35.1230 c3         1 MGO      0.141081
     18 H61        20.0480   16.5030   35.2580 h1         1 MGO      0.057384
     19 H62        21.6930   16.5650   35.9000 h1         1 MGO      0.057384
     20 O6         21.0430   14.6990   35.2750 oh         1 MGO     -0.593555
     21 HO6        20.1830   14.3790   34.9760 ho         1 MGO      0.422027
     22 C1         22.9940   22.7370   32.4490 c3         2 MGO      0.304529
     23 H1         23.3340   23.7860   32.5630 h2         2 MGO      0.090782
     24 O1         21.5730   22.6720   32.0830 os         2 MGO     -0.453070
     25 C2         23.8030   22.0850   31.3340 c3         2 MGO      0.092199
     26 H2         24.8710   22.1440   31.5630 h1         2 MGO      0.102926
     27 O2         23.5300   22.7600   30.0960 oh         2 MGO     -0.586639
     28 HO2        22.6960   23.2480   30.1690 ho         2 MGO      0.425065
     29 C3         23.3820   20.6410   31.1530 c3         2 MGO      0.093211
     30 H3         22.3460   20.6080   30.8020 h1         2 MGO      0.064468
     31 O3         24.2620   20.0690   30.1700 oh         2 MGO     -0.592567
     32 HO3        24.4230   20.7600   29.5120 ho         2 MGO      0.421017
     33 C4         23.5080   19.8630   32.4550 c3         2 MGO      0.127621
     34 H4         24.5660   19.7360   32.6960 h1         2 MGO      0.080661
     35 C5         22.7790   20.5690   33.6140 c3         2 MGO      0.104343
     36 H5         21.7140   20.5720   33.3760 h1         2 MGO      0.068516
     37 O5         23.2310   21.9850   33.6940 os         2 MGO     -0.427383
     38 C6         22.9000   19.9360   35.0070 c3         2 MGO      0.141081
     39 H61        22.0680   19.2480   35.1720 h1         2 MGO      0.057384
     40 H62        22.8540   20.7100   35.7770 h1         2 MGO      0.057384
     41 O6         24.1270   19.2080   35.1330 oh         2 MGO     -0.593555
     42 HO6        23.9660   18.2980   34.8470 ho         2 MGO      0.422027
     43 C1         18.0680   24.8890   32.4100 c3         3 MGO      0.304529
     44 H1         17.3350   25.7090   32.5360 h2         3 MGO      0.090782
     45 O1         17.4050   23.6230   32.0740 os         3 MGO     -0.453070
     46 C2         19.0080   25.2520   31.2660 c3         3 MGO      0.092199
     47 H2         19.4980   26.2080   31.4720 h1         3 MGO      0.102926
     48 O2         18.2550   25.3420   30.0460 oh         3 MGO     -0.586639
     49 HO2        17.4170   24.8640   30.1470 ho         3 MGO      0.425065
     50 C3         20.0440   24.1630   31.0680 c3         3 MGO      0.093211
     51 H3         19.5440   23.2470   30.7400 h1         3 MGO      0.064468
     52 O3         20.9510   24.6280   30.0560 oh         3 MGO     -0.592567
     53 HO3        20.4170   25.1070   29.4080 ho         3 MGO      0.421017
     54 C4         20.8140   23.8950   32.3530 c3         3 MGO      0.127621
     55 H4         21.4590   24.7510   32.5690 h1         3 MGO      0.080661
     56 C5         19.8690   23.6310   33.5400 c3         3 MGO      0.104343
     57 H5         19.3280   22.7070   33.3260 h1         3 MGO      0.068516
     58 O5         18.8720   24.7300   33.6360 os         3 MGO     -0.427383
     59 C6         20.5140   23.4320   34.9190 c3         3 MGO      0.141081
     60 H61        20.6980   22.3690   35.0890 h1         3 MGO      0.057384
     61 H62        19.8420   23.7870   35.7030 h1         3 MGO      0.057384
     62 O6         21.7620   24.1320   35.0050 oh         3 MGO     -0.593555
     63 HO6        22.4600   23.5340   34.7060 ho         3 MGO      0.422027
     64 C1         13.7420   21.7020   32.5180 c3         4 MGO      0.304529
     65 H1         12.6680   21.4780   32.6750 h2         4 MGO      0.090782
     66 O1         14.4980   20.4910   32.1760 os         4 MGO     -0.453070
     67 C2         13.8670   22.6860   31.3600 c3         4 MGO      0.092199
     68 H2         13.2900   23.5900   31.5730 h1         4 MGO      0.102926
     69 O2         13.3810   22.0650   30.1600 oh         4 MGO     -0.586639
     70 HO2        13.3780   21.1020   30.2700 ho         4 MGO      0.425065
     71 C3         15.3220   23.0340   31.1200 c3         4 MGO      0.093211
     72 H3         15.8570   22.1400   30.7870 h1         4 MGO      0.064468
     73 O3         15.3470   24.0420   30.0970 oh         4 MGO     -0.592567
     74 HO3        14.6480   23.8130   29.4680 ho         4 MGO      0.421017
     75 C4         15.9720   23.5810   32.3830 c3         4 MGO      0.127621
     76 H4         15.5610   24.5690   32.6000 h1         4 MGO      0.080661
     77 C5         15.7620   22.6430   33.5850 c3         4 MGO      0.104343
     78 H5         16.2840   21.7090   33.3670 h1         4 MGO      0.068516
     79 O5         14.3140   22.3310   33.7230 os         4 MGO     -0.427383
     80 C6         16.2920   23.1150   34.9460 c3         4 MGO      0.141081
     81 H61        17.3100   22.7460   35.0930 h1         4 MGO      0.057384
     82 H62        15.6700   22.7200   35.7510 h1         4 MGO      0.057384
     83 O6         16.3140   24.5470   35.0170 oh         4 MGO     -0.593555
     84 HO6        17.1720   24.8490   34.6920 ho         4 MGO      0.422027
     85 C1         14.3410   16.3630   32.6680 c3         5 MGO      0.304529
     86 H1         14.0020   15.3230   32.8450 h2         5 MGO      0.090782
     87 O1         15.7580   16.4080   32.2860 os         5 MGO     -0.453070
     88 C2         13.5210   16.9510   31.5250 c3         5 MGO      0.092199
     89 H2         12.4560   16.9060   31.7670 h1         5 MGO      0.102926
     90 O2         13.7840   16.2060   30.3240 oh         5 MGO     -0.586639
     91 HO2        14.6180   15.7240   30.4180 ho         5 MGO      0.425065
     92 C3         13.9400   18.3820   31.2580 c3         5 MGO      0.093211
     93 H3         14.9730   18.3940   30.8970 h1         5 MGO      0.064468
     94 O3         13.0520   18.8970   30.2520 oh         5 MGO     -0.592567
     95 HO3        12.8850   18.1710   29.6360 ho         5 MGO      0.421017
     96 C4         13.8260   19.2330   32.5160 c3         5 MGO      0.127621
     97 H4         12.7700   19.3730   32.7590 h1         5 MGO      0.080661
     98 C5         14.5650   18.5930   33.7060 c3         5 MGO      0.104343
     99 H5         15.6280   18.5760   33.4600 h1         5 MGO      0.068516
    100 O5         14.1140   17.1850   33.8700 os         5 MGO     -0.427383
    101 C6         14.4560   19.3040   35.0620 c3         5 MGO      0.141081
    102 H61        15.2900   20.0010   35.1800 h1         5 MGO      0.057384
    103 H62        14.5090   18.5750   35.8740 h1         5 MGO      0.057384
    104 O6         13.2300   20.0390   35.1580 oh         5 MGO     -0.593555
    105 HO6        13.3880   20.9290   34.8190 ho         5 MGO      0.422027
    106 C1         19.2670   14.2110   32.7070 c3         6 MGO      0.304529
    107 H1         20.0020   13.3990   32.8740 h2         6 MGO      0.090782
    108 O1         19.9260   15.4550   32.2940 os         6 MGO     -0.453070
    109 C2         18.3160   13.7840   31.5940 c3         6 MGO      0.092199
    110 H2         17.8290   12.8410   31.8590 h1         6 MGO      0.102926
    111 O2         19.0600   13.6250   30.3750 oh         6 MGO     -0.586639
    112 HO2        19.8980   14.1080   30.4410 ho         6 MGO      0.425065
    113 C3         17.2790   14.8600   31.3440 c3         6 MGO      0.093211
    114 H3         17.7760   15.7560   30.9600 h1         6 MGO      0.064468
    115 O3         16.3630   14.3380   30.3680 oh         6 MGO     -0.592567
    116 HO3        16.8910   13.8240   29.7430 ho         6 MGO      0.421017
    117 C4         16.5210   15.2000   32.6190 c3         6 MGO      0.127621
    118 H4         15.8780   14.3580   32.8880 h1         6 MGO      0.080661
    119 C5         17.4750   15.5320   33.7790 c3         6 MGO      0.104343
    120 H5         18.0150   16.4420   33.5100 h1         6 MGO      0.068516
    121 O5         18.4740   14.4390   33.9290 os         6 MGO     -0.427383
    122 C6         16.8430   15.8090   35.1510 c3         6 MGO      0.141081
    123 H61        16.6590   16.8800   35.2620 h1         6 MGO      0.057384
    124 H62        17.5220   15.4980   35.9490 h1         6 MGO      0.057384
    125 O6         15.5950   15.1150   35.2880 oh         6 MGO     -0.593555
    126 HO6        14.8940   15.6950   34.9610 ho         6 MGO      0.422027
@<TRIPOS>BOND
    1    17    20 1
    2    14    16 1
    3    14    17 1
    4    12    14 1
    5    12   108 1
    6     8    10 1
    7     8    12 1
    8     4     6 1
    9     4     8 1
   10     3    33 1
   11     1     3 1
   12     1     4 1
   13     1    16 1
   14    38    41 1
   15    35    37 1
   16    35    38 1
   17    33    35 1
   18    29    31 1
   19    29    33 1
   20    25    27 1
   21    25    29 1
   22    24    54 1
   23    22    24 1
   24    22    25 1
   25    22    37 1
   26    59    62 1
   27    56    58 1
   28    56    59 1
   29    54    56 1
   30    50    52 1
   31    50    54 1
   32    46    48 1
   33    46    50 1
   34    45    75 1
   35    43    45 1
   36    43    46 1
   37    43    58 1
   38    80    83 1
   39    77    79 1
   40    77    80 1
   41    75    77 1
   42    71    73 1
   43    71    75 1
   44    67    69 1
   45    67    71 1
   46    66    96 1
   47    64    66 1
   48    64    67 1
   49    64    79 1
   50   101   104 1
   51    98   100 1
   52    98   101 1
   53    96    98 1
   54    92    94 1
   55    92    96 1
   56    88    90 1
   57    88    92 1
   58    87   117 1
   59    85    87 1
   60    85    88 1
   61    85   100 1
   62   122   125 1
   63   119   121 1
   64   119   122 1
   65   117   119 1
   66   113   115 1
   67   113   117 1
   68   109   111 1
   69   109   113 1
   70   106   108 1
   71   106   109 1
   72   106   121 1
   73    20    21 1
   74    17    18 1
   75    17    19 1
   76    14    15 1
   77    12    13 1
   78    10    11 1
   79     8     9 1
   80     6     7 1
   81     4     5 1
   82     1     2 1
   83    41    42 1
   84    38    39 1
   85    38    40 1
   86    35    36 1
   87    33    34 1
   88    31    32 1
   89    29    30 1
   90    27    28 1
   91    25    26 1
   92    22    23 1
   93    62    63 1
   94    59    60 1
   95    59    61 1
   96    56    57 1
   97    54    55 1
   98    52    53 1
   99    50    51 1
  100    48    49 1
  101    46    47 1
  102    43    44 1
  103    83    84 1
  104    80    81 1
  105    80    82 1
  106    77    78 1
  107    75    76 1
  108    73    74 1
  109    71    72 1
  110    69    70 1
  111    67    68 1
  112    64    65 1
  113   104   105 1
  114   101   102 1
  115   101   103 1
  116    98    99 1
  117    96    97 1
  118    94    95 1
  119    92    93 1
  120    90    91 1
  121    88    89 1
  122    85    86 1
  123   125   126 1
  124   122   123 1
  125   122   124 1
  126   119   120 1
  127   117   118 1
  128   115   116 1
  129   113   114 1
  130   111   112 1
  131   109   110 1
  132   106   107 1
@<TRIPOS>SUBSTRUCTURE
      1 MGO               1 ****               0 ****  **** 
      2 MGO              22 ****               0 ****  **** 
      3 MGO              43 ****               0 ****  **** 
      4 MGO              64 ****               0 ****  **** 
      5 MGO              85 ****               0 ****  **** 
      6 MGO             106 ****               0 ****  **** 
