@<TRIPOS>MOLECULE
Cpptraj
   29    28     1     0     0
SMALL
No Charge or Current Charge


@<TRIPOS>ATOM
      1 C1          18.9400    19.5240    30.5830 C.3        1 OAM      -0.095100
      2 H3          18.8330    18.4370    30.5450 H          1 OAM       0.038367
      3 H4          18.4580    19.9470    29.6990 H          1 OAM       0.038367
      4 H5          20.0040    19.7700    30.5450 H          1 OAM       0.038367
      5 C2          18.2960    20.0890    31.8630 C.3        1 OAM      -0.079400
      6 H6          17.2300    19.8520    31.8630 H          1 OAM       0.041700
      7 H7          18.3940    21.1770    31.8630 H          1 OAM       0.041700
      8 C3          18.9600    19.5070    33.1290 C.3        1 OAM      -0.079400
      9 H8          18.8630    18.4180    33.1230 H          1 OAM       0.043700
     10 H9          20.0270    19.7430    33.1230 H          1 OAM       0.043700
     11 C4          18.3140    20.0740    34.4100 C.3        1 OAM      -0.079400
     12 H10         17.2470    19.8360    34.4150 H          1 OAM       0.045700
     13 H11         18.4110    21.1620    34.4150 H          1 OAM       0.045700
     14 C5          18.9770    19.4910    35.6760 C.3        1 OAM      -0.079400
     15 H12         18.8810    18.4020    35.6700 H          1 OAM       0.049700
     16 H13         20.0450    19.7280    35.6700 H          1 OAM       0.049700
     17 C6          18.3310    20.0580    36.9580 C.3        1 OAM      -0.079400
     18 H14         17.2640    19.8220    36.9630 H          1 OAM       0.057700
     19 H15         18.4280    21.1470    36.9630 H          1 OAM       0.057700
     20 C7          18.9940    19.4770    38.2240 C.3        1 OAM      -0.111400
     21 H16         18.8960    18.3880    38.2210 H          1 OAM       0.069700
     22 H17         20.0610    19.7150    38.2210 H          1 OAM       0.069700
     23 C8          18.3400    20.0510    39.4950 C.3        1 OAM       0.098800
     24 H18         17.2740    19.8060    39.5070 H          1 OAM       0.113700
     25 H19         18.4450    21.1390    39.5070 H          1 OAM       0.113700
     26 N1          18.9400    19.5240    40.7790 N.4        1 OAM      -0.839600
     27 H1          18.8490    18.4980    40.8530 H          1 OAM       0.461800
     28 H2          18.4790    19.9290    41.6100 H          1 OAM       0.461800
     29 HN11        19.9450    19.7470    40.8530 H          1 OAM       0.461799
@<TRIPOS>BOND
     1    23    26 1   
     2    20    23 1   
     3    17    20 1   
     4    14    17 1   
     5    11    14 1   
     6     8    11 1   
     7     5     8 1   
     8     1     5 1   
     9    26    27 1   
    10    26    28 1   
    11    26    29 1   
    12    23    24 1   
    13    23    25 1   
    14    20    21 1   
    15    20    22 1   
    16    17    18 1   
    17    17    19 1   
    18    14    15 1   
    19    14    16 1   
    20    11    12 1   
    21    11    13 1   
    22     8     9 1   
    23     8    10 1   
    24     5     6 1   
    25     5     7 1   
    26     1     2 1   
    27     1     3 1   
    28     1     4 1   
@<TRIPOS>SUBSTRUCTURE
     1 OAM         1 TEMP              0 ****  ****    0 ROOT
