@<TRIPOS>MOLECULE
Cpptraj generated mol2 file.
   17    16     1     0     0
SMALL
USER_CHARGES


@<TRIPOS>ATOM
      1 C1         19.4590   19.6190   38.5860 c          1 HX3      0.913353
      2 O1         20.3820   20.3120   38.9840 o          1 HX3     -0.847529
      3 O2         18.4360   19.5070   39.2450 o          1 HX3     -0.847529
      4 C2         19.5870   18.8890   37.2470 c3         1 HX3     -0.187251
      5 H1         18.8550   18.0780   37.1910 hc         1 HX3      0.035690
      6 H2         20.5740   18.4160   37.1900 hc         1 HX3      0.035690
      7 C3         19.4230   19.8270   36.0650 c2         1 HX3     -0.081222
      8 H3         19.2370   20.8710   36.3170 ha         1 HX3      0.140962
      9 C4         19.4920   19.4370   34.7960 c2         1 HX3     -0.271273
     10 H4         19.6780   18.3930   34.5480 ha         1 HX3      0.101972
     11 C5         19.3260   20.3720   33.6170 c3         1 HX3     -0.029208
     12 H5         18.3510   20.8630   33.6550 hc         1 HX3      0.029692
     13 H6         20.0870   21.1550   33.6650 hc         1 HX3      0.029692
     14 C6         19.4590   19.6190   32.2810 c3         1 HX3     -0.084123
     15 H7         18.6920   18.8460   32.1970 hc         1 HX3      0.020361
     16 H8         19.3430   20.3110   31.4440 hc         1 HX3      0.020361
     17 H9         20.4400   19.1460   32.2010 hc         1 HX3      0.020362
@<TRIPOS>BOND
    1    11    14 1
    2     9    11 1
    3     7     9 1
    4     4     7 1
    5     1     2 1
    6     1     3 1
    7     1     4 1
    8    14    15 1
    9    14    16 1
   10    14    17 1
   11    11    12 1
   12    11    13 1
   13     9    10 1
   14     7     8 1
   15     4     5 1
   16     4     6 1
@<TRIPOS>SUBSTRUCTURE
      1 HX3               1 ****               0 ****  **** 
