@<TRIPOS>MOLECULE
Cpptraj
  126   132     1     0     0
SMALL
No Charge or Current Charge


@<TRIPOS>ATOM
      1 C1          22.1320    14.9440    34.4000 C.3        1 MGO       0.304529
      2 H1          23.1390    14.5110    34.5560 H          1 MGO       0.090782
      3 O1          22.2110    16.3490    33.9800 O.3        1 MGO      -0.453070
      4 C2          21.4320    14.1570    33.2960 C.3        1 MGO       0.092199
      5 H2          21.3830    13.0980    33.5660 H          1 MGO       0.102926
      6 O2          22.1620    14.3160    32.0680 O.3        1 MGO      -0.586639
      7 HO2         22.7250    15.1030    32.1260 H          1 MGO       0.425065
      8 C3          20.0400    14.7050    33.0580 C.3        1 MGO       0.093211
      9 H3          20.1160    15.7240    32.6690 H          1 MGO       0.064468
     10 O3          19.4130    13.8460    32.0930 O.3        1 MGO      -0.592567
     11 HO3         20.1010    13.5940    31.4610 H          1 MGO       0.421017
     12 C4          19.2220    14.7050    34.3410 C.3        1 MGO       0.127621
     13 H4          18.9890    13.6730    34.6180 H          1 MGO       0.080661
     14 C5          19.9650    15.4080    35.4920 C.3        1 MGO       0.104343
     15 H5          20.0760    16.4580    35.2160 H          1 MGO       0.068516
     16 O5          21.3280    14.8280    35.6300 O.3        1 MGO      -0.427383
     17 C6          19.2880    15.4030    36.8700 C.3        1 MGO       0.141081
     18 H61         18.6780    16.3020    36.9840 H          1 MGO       0.057384
     19 H62         20.0440    15.4060    37.6610 H          1 MGO       0.057384
     20 O6          18.4430    14.2550    37.0200 O.3        1 MGO      -0.593555
     21 HO6         17.5610    14.4900    36.7030 H          1 MGO       0.422027
     22 C1          24.7440    19.6390    34.2430 C.3        2 MGO       0.304529
     23 H1          25.6270    20.2970    34.3650 H          2 MGO       0.090782
     24 O1          23.5550    20.4050    33.8470 O.3        2 MGO      -0.453070
     25 C2          25.0440    18.6250    33.1450 C.3        2 MGO       0.092199
     26 H2          25.9440    18.0570    33.3960 H          2 MGO       0.102926
     27 O2          25.2350    19.3190    31.9020 O.3        2 MGO      -0.586639
     28 HO2         24.8380    20.2010    31.9580 H          2 MGO       0.425065
     29 C3          23.8660    17.6910    32.9530 C.3        2 MGO       0.093211
     30 H3          23.0100    18.2610    32.5810 H          2 MGO       0.064468
     31 O3          24.2680    16.7040    31.9890 O.3        2 MGO      -0.592567
     32 HO3         24.8120    17.1650    31.3340 H          2 MGO       0.421017
     33 C4          23.4940    16.9990    34.2570 C.3        2 MGO       0.127621
     34 H4          24.2790    16.2860    34.5210 H          2 MGO       0.080661
     35 C5          23.2910    18.0110    35.4010 C.3        2 MGO       0.104343
     36 H5          22.4290    18.6290    35.1410 H          2 MGO       0.068516
     37 O5          24.4790    18.9020    35.4920 O.3        2 MGO      -0.427383
     38 C6          22.9970    17.4410    36.7960 C.3        2 MGO       0.141081
     39 H61         21.9180    17.3640    36.9430 H          2 MGO       0.057384
     40 H62         23.3950    18.1070    37.5650 H          2 MGO       0.057384
     41 O6          23.5720    16.1370    36.9470 O.3        2 MGO      -0.593555
     42 HO6         22.9180    15.4870    36.6570 H          2 MGO       0.422027
     43 C1          21.9810    24.2480    34.1020 C.3        3 MGO       0.304529
     44 H1          21.8580    25.3430    34.2130 H          3 MGO       0.090782
     45 O1          20.7130    23.5970    33.7520 O.3        3 MGO      -0.453070
     46 C2          22.9780    23.9850    32.9780 C.3        3 MGO       0.092199
     47 H2          23.9270    24.4820    33.1960 H          3 MGO       0.102926
     48 O2          22.4380    24.4820    31.7430 O.3        3 MGO      -0.586639
     49 HO2         21.4770    24.5800    31.8260 H          3 MGO       0.425065
     50 C3          23.1930    22.4950    32.8020 C.3        3 MGO       0.093211
     51 H3          22.2600    22.0350    32.4620 H          3 MGO       0.064468
     52 O3          24.2190    22.3370    31.8090 O.3        3 MGO      -0.592567
     53 HO3         24.0730    23.0290    31.1500 H          3 MGO       0.421017
     54 C4          23.6420    21.8450    34.1020 C.3        3 MGO       0.127621
     55 H4          24.6600    22.1710    34.3330 H          3 MGO       0.080661
     56 C5          22.6980    22.1920    35.2690 C.3        3 MGO       0.104343
     57 H5          21.7250    21.7510    35.0430 H          3 MGO       0.068516
     58 O5          22.5220    23.6670    35.3450 O.3        3 MGO      -0.427383
     59 C6          23.0830    21.6710    36.6610 C.3        3 MGO       0.141081
     60 H61         22.6140    20.7010    36.8340 H          3 MGO       0.057384
     61 H62         22.7280    22.3600    37.4310 H          3 MGO       0.057384
     62 O6          24.5050    21.5180    36.7740 O.3        3 MGO      -0.593555
     63 HO6         24.7310    20.6240    36.4890 H          3 MGO       0.422027
     64 C1          16.6080    24.1630    34.1170 C.3        4 MGO       0.304529
     65 H1          15.6000    24.6040    34.2510 H          4 MGO       0.090782
     66 O1          16.5260    22.7340    33.7890 O.3        4 MGO      -0.453070
     67 C2          17.3010    24.8780    32.9630 C.3        4 MGO       0.092199
     68 H2          17.3510    25.9520    33.1640 H          4 MGO       0.102926
     69 O2          16.5660    24.6410    31.7520 O.3        4 MGO      -0.586639
     70 HO2         16.0030    23.8590    31.8620 H          4 MGO       0.425065
     71 C3          18.6920    24.3150    32.7530 C.3        4 MGO       0.093211
     72 H3          18.6140    23.2730    32.4310 H          4 MGO       0.064468
     73 O3          19.3140    25.1100    31.7320 O.3        4 MGO      -0.592567
     74 HO3         18.6240    25.3210    31.0890 H          4 MGO       0.421017
     75 C4          19.5160    24.3970    34.0300 C.3        4 MGO       0.127621
     76 H4          19.7510    25.4440    34.2390 H          4 MGO       0.080661
     77 C5          18.7790    23.7700    35.2260 C.3        4 MGO       0.104343
     78 H5          18.6670    22.7040    35.0190 H          4 MGO       0.068516
     79 O5          17.4170    24.3570    35.3340 O.3        4 MGO      -0.427383
     80 C6          19.4620    23.8620    36.5990 C.3        4 MGO       0.141081
     81 H61         20.0740    22.9730    36.7670 H          4 MGO       0.057384
     82 H62         18.7110    23.9110    37.3910 H          4 MGO       0.057384
     83 O6          20.3080    25.0170    36.6720 O.3        4 MGO      -0.593555
     84 HO6         21.1880    24.7620    36.3650 H          4 MGO       0.422027
     85 C1          13.9950    19.4680    34.2750 C.3        5 MGO       0.304529
     86 H1          13.1130    18.8190    34.4430 H          5 MGO       0.090782
     87 O1          15.1820    18.6780    33.9230 O.3        5 MGO      -0.453070
     88 C2          13.6890    20.4090    33.1150 C.3        5 MGO       0.092199
     89 H2          12.7910    20.9930    33.3350 H          5 MGO       0.102926
     90 O2          13.4920    19.6370    31.9200 O.3        5 MGO      -0.586639
     91 HO2         13.8900    18.7610    32.0310 H          5 MGO       0.425065
     92 C3          14.8650    21.3290    32.8580 C.3        5 MGO       0.093211
     93 H3          15.7200    20.7360    32.5190 H          5 MGO       0.064468
     94 O3          14.4590    22.2520    31.8350 O.3        5 MGO      -0.592567
     95 HO3         13.9120    21.7510    31.2150 H          5 MGO       0.421017
     96 C4          15.2440    22.1030    34.1140 C.3        5 MGO       0.127621
     97 H4          14.4610    22.8320    34.3350 H          5 MGO       0.080661
     98 C5          15.4530    21.1670    35.3190 C.3        5 MGO       0.104343
     99 H5          16.3140    20.5330    35.0950 H          5 MGO       0.068516
    100 O5          14.2670    20.2830    35.4720 O.3        5 MGO      -0.427383
    101 C6          15.7530    21.8240    36.6730 C.3        5 MGO       0.141081
    102 H61         16.8340    21.9100    36.8090 H          5 MGO       0.057384
    103 H62         15.3600    21.2090    37.4860 H          5 MGO       0.057384
    104 O6          15.1790    23.1360    36.7440 O.3        5 MGO      -0.593555
    105 HO6         15.8310    23.7650    36.4090 H          5 MGO       0.422027
    106 C1          16.7580    14.8580    34.4150 C.3        6 MGO       0.304529
    107 H1          16.8820    13.7730    34.5970 H          6 MGO       0.090782
    108 O1          18.0240    15.4850    34.0180 O.3        6 MGO      -0.453070
    109 C2          15.7550    15.0500    33.2820 C.3        6 MGO       0.092199
    110 H2          14.8070    14.5670    33.5360 H          6 MGO       0.102926
    111 O2          16.2900    14.4750    32.0790 O.3        6 MGO      -0.586639
    112 HO2         17.2510    14.3820    32.1630 H          6 MGO       0.425065
    113 C3          15.5400    16.5240    33.0110 C.3        6 MGO       0.093211
    114 H3          16.4710    16.9620    32.6390 H          6 MGO       0.064468
    115 O3          14.5080    16.6200    32.0160 O.3        6 MGO      -0.592567
    116 HO3         14.6510    15.8870    31.4020 H          6 MGO       0.421017
    117 C4          15.0970    17.2560    34.2700 C.3        6 MGO       0.127621
    118 H4          14.0800    16.9460    34.5260 H          6 MGO       0.080661
    119 C5          16.0460    16.9860    35.4510 C.3        6 MGO       0.104343
    120 H5          17.0190    17.4110    35.1930 H          6 MGO       0.068516
    121 O5          16.2220    15.5180    35.6200 O.3        6 MGO      -0.427383
    122 C6          15.6680    17.5940    36.8090 C.3        6 MGO       0.141081
    123 H61         16.1380    18.5750    36.9170 H          6 MGO       0.057384
    124 H62         16.0270    16.9570    37.6210 H          6 MGO       0.057384
    125 O6          14.2470    17.7540    36.9190 O.3        6 MGO      -0.593555
    126 HO6         14.0180    18.6290    36.5790 H          6 MGO       0.422027
@<TRIPOS>BOND
     1    17    20 1   
     2    14    16 1   
     3    14    17 1   
     4    12    14 1   
     5    12   108 1   
     6     8    10 1   
     7     8    12 1   
     8     4     6 1   
     9     4     8 1   
    10     3    33 1   
    11     1     3 1   
    12     1     4 1   
    13     1    16 1   
    14    38    41 1   
    15    35    37 1   
    16    35    38 1   
    17    33    35 1   
    18    29    31 1   
    19    29    33 1   
    20    25    27 1   
    21    25    29 1   
    22    24    54 1   
    23    22    24 1   
    24    22    25 1   
    25    22    37 1   
    26    59    62 1   
    27    56    58 1   
    28    56    59 1   
    29    54    56 1   
    30    50    52 1   
    31    50    54 1   
    32    46    48 1   
    33    46    50 1   
    34    45    75 1   
    35    43    45 1   
    36    43    46 1   
    37    43    58 1   
    38    80    83 1   
    39    77    79 1   
    40    77    80 1   
    41    75    77 1   
    42    71    73 1   
    43    71    75 1   
    44    67    69 1   
    45    67    71 1   
    46    66    96 1   
    47    64    66 1   
    48    64    67 1   
    49    64    79 1   
    50   101   104 1   
    51    98   100 1   
    52    98   101 1   
    53    96    98 1   
    54    92    94 1   
    55    92    96 1   
    56    88    90 1   
    57    88    92 1   
    58    87   117 1   
    59    85    87 1   
    60    85    88 1   
    61    85   100 1   
    62   122   125 1   
    63   119   121 1   
    64   119   122 1   
    65   117   119 1   
    66   113   115 1   
    67   113   117 1   
    68   109   111 1   
    69   109   113 1   
    70   106   108 1   
    71   106   109 1   
    72   106   121 1   
    73    20    21 1   
    74    17    18 1   
    75    17    19 1   
    76    14    15 1   
    77    12    13 1   
    78    10    11 1   
    79     8     9 1   
    80     6     7 1   
    81     4     5 1   
    82     1     2 1   
    83    41    42 1   
    84    38    39 1   
    85    38    40 1   
    86    35    36 1   
    87    33    34 1   
    88    31    32 1   
    89    29    30 1   
    90    27    28 1   
    91    25    26 1   
    92    22    23 1   
    93    62    63 1   
    94    59    60 1   
    95    59    61 1   
    96    56    57 1   
    97    54    55 1   
    98    52    53 1   
    99    50    51 1   
   100    48    49 1   
   101    46    47 1   
   102    43    44 1   
   103    83    84 1   
   104    80    81 1   
   105    80    82 1   
   106    77    78 1   
   107    75    76 1   
   108    73    74 1   
   109    71    72 1   
   110    69    70 1   
   111    67    68 1   
   112    64    65 1   
   113   104   105 1   
   114   101   102 1   
   115   101   103 1   
   116    98    99 1   
   117    96    97 1   
   118    94    95 1   
   119    92    93 1   
   120    90    91 1   
   121    88    89 1   
   122    85    86 1   
   123   125   126 1   
   124   122   123 1   
   125   122   124 1   
   126   119   120 1   
   127   117   118 1   
   128   115   116 1   
   129   113   114 1   
   130   111   112 1   
   131   109   110 1   
   132   106   107 1   
@<TRIPOS>SUBSTRUCTURE
     1 MGO         1 TEMP              0 ****  ****    0 ROOT
