@<TRIPOS>MOLECULE
Cpptraj generated mol2 file.
  126   132     6     0     0
SMALL
USER_CHARGES


@<TRIPOS>ATOM
      1 C1         16.4530   15.0120   33.6300 c3         1 MGO      0.304529
      2 H1         16.5060   13.9160   33.7820 h2         1 MGO      0.090782
      3 O1         17.7610   15.5660   33.2550 os         1 MGO     -0.453070
      4 C2         15.4730   15.2980   32.4970 c3         1 MGO      0.092199
      5 H2         14.4940   14.8710   32.7340 h1         1 MGO      0.102926
      6 O2         15.9770   14.7210   31.2810 oh         1 MGO     -0.586639
      7 HO2        16.9300   14.5640   31.3680 ho         1 MGO      0.425065
      8 C3         15.3560   16.7900   32.2640 c3         1 MGO      0.093211
      9 H3         16.3150   17.1760   31.9080 h1         1 MGO      0.064468
     10 O3         14.3390   16.9780   31.2670 oh         1 MGO     -0.592567
     11 HO3        14.4370   16.2530   30.6340 ho         1 MGO      0.421017
     12 C4         14.9530   17.5160   33.5400 c3         1 MGO      0.127621
     13 H4         13.9160   17.2670   33.7820 h1         1 MGO      0.080661
     14 C5         15.8750   17.1540   34.7180 c3         1 MGO      0.104343
     15 H5         16.8750   17.5210   34.4750 h1         1 MGO      0.068516
     16 O5         15.9550   15.6740   34.8500 os         1 MGO     -0.427383
     17 C6         15.5290   17.7510   36.0890 c3         1 MGO      0.141081
     18 H61        16.0610   18.6950   36.2250 h1         1 MGO      0.057384
     19 H62        15.8400   17.0700   36.8860 h1         1 MGO      0.057384
     20 O6         14.1210   18.0000   36.1970 oh         1 MGO     -0.593555
     21 HO6        13.9510   18.8960   35.8790 ho         1 MGO      0.422027
     22 C1         21.8220   14.7490   33.6410 c3         2 MGO      0.304529
     23 H1         22.7980   14.2480   33.7910 h2         2 MGO      0.090782
     24 O1         21.9950   16.1560   33.2590 os         2 MGO     -0.453070
     25 C2         21.0800   14.0370   32.5150 c3         2 MGO      0.092199
     26 H2         20.9620   12.9770   32.7570 h1         2 MGO      0.102926
     27 O2         21.8270   14.1810   31.2950 oh         2 MGO     -0.586639
     28 HO2        22.4400   14.9270   31.3750 ho         2 MGO      0.425065
     29 C3         19.7280   14.6820   32.2850 c3         2 MGO      0.093211
     30 H3         19.8730   15.7030   31.9230 h1         2 MGO      0.064468
     31 O3         19.0520   13.8900   31.2940 oh         2 MGO     -0.592567
     32 HO3        19.7270   13.6100   30.6580 ho         2 MGO      0.421017
     33 C4         18.9030   14.7010   33.5630 c3         2 MGO      0.127621
     34 H4         18.6020   13.6800   33.8110 h1         2 MGO      0.080661
     35 C5         19.6830   15.3240   34.7360 c3         2 MGO      0.104343
     36 H5         19.8640   16.3720   34.4880 h1         2 MGO      0.068516
     37 O5         21.0050   14.6530   34.8640 os         2 MGO     -0.427383
     38 C6         18.9990   15.3270   36.1100 c3         2 MGO      0.141081
     39 H61        18.4480   16.2600   36.2450 h1         2 MGO      0.057384
     40 H62        19.7480   15.2610   36.9030 h1         2 MGO      0.057384
     41 O6         18.0800   14.2340   36.2260 oh         2 MGO     -0.593555
     42 HO6        17.2170   14.5340   35.9100 ho         2 MGO      0.422027
     43 C1         24.7350   19.2670   33.6190 c3         3 MGO      0.304529
     44 H1         25.6580   19.8610   33.7630 h2         3 MGO      0.090782
     45 O1         23.6010   20.1180   33.2380 os         3 MGO     -0.453070
     46 C2         24.9750   18.2630   32.4960 c3         3 MGO      0.092199
     47 H2         25.8340   17.6310   32.7370 h1         3 MGO      0.102926
     48 O2         25.2200   18.9750   31.2720 oh         3 MGO     -0.586639
     49 HO2        24.8800   19.8800   31.3500 ho         3 MGO      0.425065
     50 C3         23.7410   17.4130   32.2750 c3         3 MGO      0.093211
     51 H3         22.9260   18.0470   31.9140 h1         3 MGO      0.064468
     52 O3         24.0840   16.4280   31.2870 oh         3 MGO     -0.592567
     53 HO3        24.6600   16.8690   30.6490 ho         3 MGO      0.421017
     54 C4         23.3160   16.7140   33.5590 c3         3 MGO      0.127621
     55 H4         24.0510   15.9440   33.8080 h1         3 MGO      0.080661
     56 C5         23.1720   17.7070   34.7280 c3         3 MGO      0.104343
     57 H5         22.3530   18.3860   34.4800 h1         3 MGO      0.068516
     58 O5         24.4140   18.5170   34.8480 os         3 MGO     -0.427383
     59 C6         22.8320   17.1230   36.1060 c3         3 MGO      0.141081
     60 H61        21.7490   17.1130   36.2450 h1         3 MGO      0.057384
     61 H62        23.2680   17.7410   36.8940 h1         3 MGO      0.057384
     62 O6         23.3210   15.7800   36.2270 oh         3 MGO     -0.593555
     63 HO6        22.6280   15.1830   35.9160 ho         3 MGO      0.422027
     64 C1         22.2790   24.0480   33.5850 c3         4 MGO      0.304529
     65 H1         22.2250   25.1450   33.7240 h2         4 MGO      0.090782
     66 O1         20.9730   23.4900   33.2130 os         4 MGO     -0.453070
     67 C2         23.2640   23.7490   32.4590 c3         4 MGO      0.092199
     68 H2         24.2420   24.1780   32.6940 h1         4 MGO      0.102926
     69 O2         22.7640   24.3110   31.2350 oh         4 MGO     -0.586639
     70 HO2        21.8110   24.4680   31.3160 ho         4 MGO      0.425065
     71 C3         23.3810   22.2540   32.2440 c3         4 MGO      0.093211
     72 H3         22.4230   21.8640   31.8890 h1         4 MGO      0.064468
     73 O3         24.4010   22.0540   31.2530 oh         4 MGO     -0.592567
     74 HO3        24.3060   22.7700   30.6110 ho         4 MGO      0.421017
     75 C4         23.7800   21.5440   33.5300 c3         4 MGO      0.127621
     76 H4         24.8150   21.7960   33.7740 h1         4 MGO      0.080661
     77 C5         22.8530   21.9200   34.7000 c3         4 MGO      0.104343
     78 H5         21.8550   21.5500   34.4590 h1         4 MGO      0.068516
     79 O5         22.7730   23.4000   34.8150 os         4 MGO     -0.427383
     80 C6         23.1950   21.3400   36.0810 c3         4 MGO      0.141081
     81 H61        22.6640   20.3970   36.2270 h1         4 MGO      0.057384
     82 H62        22.8820   22.0300   36.8670 h1         4 MGO      0.057384
     83 O6         24.6020   21.0920   36.1960 oh         4 MGO     -0.593555
     84 HO6        24.7730   20.1920   35.8890 ho         4 MGO      0.422027
     85 C1         16.9110   24.3120   33.5750 c3         5 MGO      0.304529
     86 H1         15.9340   24.8140   33.7160 h2         5 MGO      0.090782
     87 O1         16.7400   22.8990   33.2090 os         5 MGO     -0.453070
     88 C2         17.6560   25.0090   32.4420 c3         5 MGO      0.092199
     89 H2         17.7750   26.0720   32.6720 h1         5 MGO      0.102926
     90 O2         16.9140   24.8510   31.2220 oh         5 MGO     -0.586639
     91 HO2        16.3010   24.1060   31.3100 ho         5 MGO      0.425065
     92 C3         19.0090   24.3630   32.2250 c3         5 MGO      0.093211
     93 H3         18.8660   23.3360   31.8740 h1         5 MGO      0.064468
     94 O3         19.6880   25.1430   31.2260 oh         5 MGO     -0.592567
     95 HO3        19.0160   25.4140   30.5860 ho         5 MGO      0.421017
     96 C4         19.8300   24.3590   33.5060 c3         5 MGO      0.127621
     97 H4         20.1300   25.3830   33.7430 h1         5 MGO      0.080661
     98 C5         19.0460   23.7500   34.6830 c3         5 MGO      0.104343
     99 H5         18.8660   22.6990   34.4480 h1         5 MGO      0.068516
    100 O5         17.7240   24.4220   34.8000 os         5 MGO     -0.427383
    101 C6         19.7250   23.7630   36.0600 c3         5 MGO      0.141081
    102 H61        20.2760   22.8310   36.2080 h1         5 MGO      0.057384
    103 H62        18.9740   23.8390   36.8500 h1         5 MGO      0.057384
    104 O6         20.6440   24.8580   36.1660 oh         5 MGO     -0.593555
    105 HO6        21.5070   24.5540   35.8570 ho         5 MGO      0.422027
    106 C1         13.9980   19.7940   33.5970 c3         6 MGO      0.304529
    107 H1         13.0740   19.2000   33.7460 h2         6 MGO      0.090782
    108 O1         15.1320   18.9370   33.2300 os         6 MGO     -0.453070
    109 C2         13.7620   20.7830   32.4620 c3         6 MGO      0.092199
    110 H2         12.9010   21.4190   32.6920 h1         6 MGO      0.102926
    111 O2         13.5210   20.0570   31.2460 oh         6 MGO     -0.586639
    112 HO2        13.8610   19.1530   31.3350 ho         6 MGO      0.425065
    113 C3         14.9960   21.6310   32.2350 c3         6 MGO      0.093211
    114 H3         15.8120   20.9920   31.8840 h1         6 MGO      0.064468
    115 O3         14.6560   22.6050   31.2340 oh         6 MGO     -0.592567
    116 HO3        14.0820   22.1560   30.5980 ho         6 MGO      0.421017
    117 C4         15.4160   22.3450   33.5120 c3         6 MGO      0.127621
    118 H4         14.6800   23.1180   33.7490 h1         6 MGO      0.080661
    119 C5         15.5570   21.3670   34.6920 c3         6 MGO      0.104343
    120 H5         16.3760   20.6840   34.4560 h1         6 MGO      0.068516
    121 O5         14.3140   20.5580   34.8170 os         6 MGO     -0.427383
    122 C6         15.8920   21.9670   36.0650 c3         6 MGO      0.141081
    123 H61        16.9750   21.9790   36.2070 h1         6 MGO      0.057384
    124 H62        15.4540   21.3590   36.8590 h1         6 MGO      0.057384
    125 O6         15.4030   23.3110   36.1670 oh         6 MGO     -0.593555
    126 HO6        16.0970   23.9060   35.8520 ho         6 MGO      0.422027
@<TRIPOS>BOND
    1    17    20 1
    2    14    16 1
    3    14    17 1
    4    12    14 1
    5    12   108 1
    6     8    10 1
    7     8    12 1
    8     4     6 1
    9     4     8 1
   10     3    33 1
   11     1     3 1
   12     1     4 1
   13     1    16 1
   14    38    41 1
   15    35    37 1
   16    35    38 1
   17    33    35 1
   18    29    31 1
   19    29    33 1
   20    25    27 1
   21    25    29 1
   22    24    54 1
   23    22    24 1
   24    22    25 1
   25    22    37 1
   26    59    62 1
   27    56    58 1
   28    56    59 1
   29    54    56 1
   30    50    52 1
   31    50    54 1
   32    46    48 1
   33    46    50 1
   34    45    75 1
   35    43    45 1
   36    43    46 1
   37    43    58 1
   38    80    83 1
   39    77    79 1
   40    77    80 1
   41    75    77 1
   42    71    73 1
   43    71    75 1
   44    67    69 1
   45    67    71 1
   46    66    96 1
   47    64    66 1
   48    64    67 1
   49    64    79 1
   50   101   104 1
   51    98   100 1
   52    98   101 1
   53    96    98 1
   54    92    94 1
   55    92    96 1
   56    88    90 1
   57    88    92 1
   58    87   117 1
   59    85    87 1
   60    85    88 1
   61    85   100 1
   62   122   125 1
   63   119   121 1
   64   119   122 1
   65   117   119 1
   66   113   115 1
   67   113   117 1
   68   109   111 1
   69   109   113 1
   70   106   108 1
   71   106   109 1
   72   106   121 1
   73    20    21 1
   74    17    18 1
   75    17    19 1
   76    14    15 1
   77    12    13 1
   78    10    11 1
   79     8     9 1
   80     6     7 1
   81     4     5 1
   82     1     2 1
   83    41    42 1
   84    38    39 1
   85    38    40 1
   86    35    36 1
   87    33    34 1
   88    31    32 1
   89    29    30 1
   90    27    28 1
   91    25    26 1
   92    22    23 1
   93    62    63 1
   94    59    60 1
   95    59    61 1
   96    56    57 1
   97    54    55 1
   98    52    53 1
   99    50    51 1
  100    48    49 1
  101    46    47 1
  102    43    44 1
  103    83    84 1
  104    80    81 1
  105    80    82 1
  106    77    78 1
  107    75    76 1
  108    73    74 1
  109    71    72 1
  110    69    70 1
  111    67    68 1
  112    64    65 1
  113   104   105 1
  114   101   102 1
  115   101   103 1
  116    98    99 1
  117    96    97 1
  118    94    95 1
  119    92    93 1
  120    90    91 1
  121    88    89 1
  122    85    86 1
  123   125   126 1
  124   122   123 1
  125   122   124 1
  126   119   120 1
  127   117   118 1
  128   115   116 1
  129   113   114 1
  130   111   112 1
  131   109   110 1
  132   106   107 1
@<TRIPOS>SUBSTRUCTURE
      1 MGO               1 ****               0 ****  **** 
      2 MGO              22 ****               0 ****  **** 
      3 MGO              43 ****               0 ****  **** 
      4 MGO              64 ****               0 ****  **** 
      5 MGO              85 ****               0 ****  **** 
      6 MGO             106 ****               0 ****  **** 
