@<TRIPOS>MOLECULE
Cpptraj generated mol2 file.
   20    19     1     0     0
SMALL
USER_CHARGES


@<TRIPOS>ATOM
      1 C1         19.0210   19.5110   31.8320 c3         1 NMB     -0.101100
      2 H14        19.5720   19.8580   30.9540 hc         1 NMB      0.053367
      3 H3         18.9550   18.4210   31.7860 hc         1 NMB      0.053367
      4 H4         18.0100   19.9220   31.7860 hc         1 NMB      0.053367
      5 C2         19.7340   19.9600   33.1200 c3         1 NMB     -0.076400
      6 H5         19.8110   21.0510   33.1280 hc         1 NMB      0.055700
      7 H6         20.7510   19.5580   33.1280 hc         1 NMB      0.055700
      8 C3         18.9760   19.4830   34.3750 c3         1 NMB     -0.112400
      9 H7         17.9600   19.8860   34.3660 hc         1 NMB      0.068700
     10 H8         18.9010   18.3920   34.3660 hc         1 NMB      0.068700
     11 C4         19.7010   19.9390   35.6560 c3         1 NMB      0.099800
     12 H9         19.7670   21.0300   35.6800 hx         1 NMB      0.109700
     13 H10        20.7130   19.5270   35.6800 hx         1 NMB      0.109700
     14 N1         19.0210   19.5110   36.9350 n4         1 NMB     -0.759000
     15 H1         18.9340   18.4790   36.9600 hn         1 NMB      0.454800
     16 H2         18.0520   19.8780   36.9600 hn         1 NMB      0.454800
     17 C5         19.8000   20.0020   38.1350 c3         1 NMB      0.077100
     18 H11        19.8500   21.0940   38.0980 hx         1 NMB      0.111367
     19 H12        19.2870   19.6780   39.0440 hx         1 NMB      0.111367
     20 H13        20.8070   19.5760   38.0980 hx         1 NMB      0.111365
@<TRIPOS>BOND
    1    14    17 1
    2    11    14 1
    3     8    11 1
    4     5     8 1
    5     1     5 1
    6    17    18 1
    7    17    19 1
    8    17    20 1
    9    14    15 1
   10    14    16 1
   11    11    12 1
   12    11    13 1
   13     8     9 1
   14     8    10 1
   15     5     6 1
   16     5     7 1
   17     1     2 1
   18     1     3 1
   19     1     4 1
@<TRIPOS>SUBSTRUCTURE
      1 NMB               1 ****               0 ****  **** 
