@<TRIPOS>MOLECULE
Cpptraj generated mol2 file.
  147   154     7     0     0
SMALL
USER_CHARGES


@<TRIPOS>ATOM
      1 C1         16.4800   14.6890   33.8580 c3         1 MGO      0.304529
      2 H1         15.4680   14.2580   33.7290 h2         1 MGO      0.090782
      3 O1         16.4180   16.1240   34.1610 os         1 MGO     -0.453070
      4 C2         17.1560   13.9700   35.0230 c3         1 MGO      0.092199
      5 H2         17.1590   12.8930   34.8380 h1         1 MGO      0.102926
      6 O2         16.4470   14.2490   36.2420 oh         1 MGO     -0.586639
      7 HO2        15.8800   15.0290   36.1260 ho         1 MGO      0.425065
      8 C3         18.5730   14.4700   35.2120 c3         1 MGO      0.093211
      9 H3         18.5540   15.5230   35.5070 h1         1 MGO      0.064468
     10 O3         19.1600   13.6620   36.2450 oh         1 MGO     -0.592567
     11 HO3        18.4620   13.5040   36.8950 ho         1 MGO      0.421017
     12 C4         19.3660   14.3000   33.9250 c3         1 MGO      0.127621
     13 H4         19.4760   13.2340   33.7130 h1         1 MGO      0.080661
     14 C5         18.6650   14.9890   32.7440 c3         1 MGO      0.104343
     15 H5         18.6080   16.0580   32.9660 h1         1 MGO      0.068516
     16 O5         17.2770   14.4690   32.6360 os         1 MGO     -0.427383
     17 C6         19.3490   14.8750   31.3740 c3         1 MGO      0.141081
     18 H61        20.0490   15.7040   31.2420 h1         1 MGO      0.057384
     19 H62        18.6040   14.9310   30.5770 h1         1 MGO      0.057384
     20 O6         20.0750   13.6430   31.2680 oh         1 MGO     -0.593555
     21 HO6        20.9730   13.7940   31.5900 ho         1 MGO      0.422027
     22 C1         13.6030   19.2170   33.8590 c3         2 MGO      0.304529
     23 H1         12.6340   19.7400   33.7310 h2         2 MGO      0.090782
     24 O1         14.6870   20.1610   34.1620 os         2 MGO     -0.453070
     25 C2         13.4630   18.2410   35.0240 c3         2 MGO      0.092199
     26 H2         12.6220   17.5660   34.8390 h1         2 MGO      0.102926
     27 O2         13.2400   18.9680   36.2420 oh         2 MGO     -0.586639
     28 HO2        13.4950   19.8980   36.1270 ho         2 MGO      0.425065
     29 C3         14.7380   17.4450   35.2110 c3         2 MGO      0.093211
     30 H3         15.5500   18.1150   35.5070 h1         2 MGO      0.064468
     31 O3         14.4720   16.4820   36.2440 oh         2 MGO     -0.592567
     32 HO3        13.9130   16.9300   36.8960 ho         2 MGO      0.421017
     33 C4         15.0990   16.7190   33.9260 c3         2 MGO      0.127621
     34 H4         14.3330   15.9680   33.7130 h1         2 MGO      0.080661
     35 C5         15.2000   17.6960   32.7440 c3         2 MGO      0.104343
     36 H5         15.9990   18.4070   32.9670 h1         2 MGO      0.068516
     37 O5         13.9270   18.4580   32.6360 os         2 MGO     -0.427383
     38 C6         15.5370   17.0910   31.3740 c3         2 MGO      0.141081
     39 H61        16.6210   17.0600   31.2410 h1         2 MGO      0.057384
     40 H62        15.1160   17.7080   30.5770 h1         2 MGO      0.057384
     41 O6         15.0250   15.7560   31.2680 oh         2 MGO     -0.593555
     42 HO6        15.7040   15.1470   31.5900 ho         2 MGO      0.422027
     43 C1         15.3490   24.2910   33.8600 c3         3 MGO      0.304529
     44 H1         15.1550   25.3730   33.7310 h2         3 MGO      0.090782
     45 O1         16.7640   24.0310   34.1620 os         3 MGO     -0.453070
     46 C2         14.5000   23.7910   35.0240 c3         3 MGO      0.092199
     47 H2         13.4480   24.0280   34.8400 h1         3 MGO      0.102926
     48 O2         14.9300   24.4190   36.2430 oh         3 MGO     -0.586639
     49 HO2        15.8160   24.7990   36.1270 ho         3 MGO      0.425065
     50 C3         14.6720   22.2980   35.2120 c3         3 MGO      0.093211
     51 H3         15.7030   22.0810   35.5070 h1         3 MGO      0.064468
     52 O3         13.7540   21.9060   36.2450 oh         3 MGO     -0.592567
     53 HO3        13.7560   22.6220   36.8970 ho         3 MGO      0.421017
     54 C4         14.3290   21.5630   33.9260 c3         3 MGO      0.127621
     55 H4         13.2640   21.6940   33.7150 h1         3 MGO      0.080661
     56 C5         15.1550   22.0930   32.7450 c3         3 MGO      0.104343
     57 H5         16.2100   21.9110   32.9670 h1         3 MGO      0.068516
     58 O5         14.9580   23.5640   32.6370 os         3 MGO     -0.427383
     59 C6         14.8920   21.4530   31.3750 c3         3 MGO      0.141081
     60 H61        15.5430   20.5860   31.2420 h1         3 MGO      0.057384
     61 H62        15.1110   22.1670   30.5770 h1         3 MGO      0.057384
     62 O6         13.5290   21.0200   31.2690 oh         3 MGO     -0.593555
     63 HO6        13.4760   20.1100   31.5900 ho         3 MGO      0.422027
     64 C1         20.4060   26.0880   33.8580 c3         4 MGO      0.304529
     65 H1         21.1300   26.9150   33.7300 h2         4 MGO      0.090782
     66 O1         21.0830   24.8200   34.1610 os         4 MGO     -0.453070
     67 C2         19.4850   26.4410   35.0230 c3         4 MGO      0.092199
     68 H2         19.0140   27.4110   34.8380 h1         4 MGO      0.102926
     69 O2         20.2450   26.4970   36.2420 oh         4 MGO     -0.586639
     70 HO2        21.0940   26.0410   36.1260 ho         4 MGO      0.425065
     71 C3         18.4250   25.3760   35.2110 c3         4 MGO      0.093211
     72 H3         18.8980   24.4350   35.5070 h1         4 MGO      0.064468
     73 O3         17.5460   25.8490   36.2440 oh         4 MGO     -0.592567
     74 HO3        18.1070   26.2940   36.8950 ho         4 MGO      0.421017
     75 C4         17.6360   25.1850   33.9260 c3         4 MGO      0.127621
     76 H4         17.0750   26.0980   33.7140 h1         4 MGO      0.080661
     77 C5         18.5660   24.8690   32.7450 c3         4 MGO      0.104343
     78 H5         19.0810   23.9310   32.9670 h1         4 MGO      0.068516
     79 O5         19.5920   25.9400   32.6360 os         4 MGO     -0.427383
     80 C6         17.9010   24.6750   31.3740 c3         4 MGO      0.141081
     81 H61        17.6300   23.6250   31.2420 h1         4 MGO      0.057384
     82 H62        18.5960   24.9480   30.5770 h1         4 MGO      0.057384
     83 O6         16.7130   25.4700   31.2690 oh         4 MGO     -0.593555
     84 HO6        15.9680   24.9450   31.5910 ho         4 MGO      0.422027
     85 C1         24.9630   23.2560   33.8580 c3         5 MGO      0.304529
     86 H1         26.0610   23.2050   33.7280 h2         5 MGO      0.090782
     87 O1         24.3950   21.9360   34.1610 os         5 MGO     -0.453070
     88 C2         24.6650   24.1960   35.0220 c3         5 MGO      0.092199
     89 H2         25.1300   25.1680   34.8370 h1         5 MGO      0.102926
     90 O2         25.1820   23.6380   36.2410 oh         5 MGO     -0.586639
     91 HO2        25.3550   22.6890   36.1260 ho         5 MGO      0.425065
     92 C3         23.1710   24.3610   35.2110 c3         5 MGO      0.093211
     93 H3         22.7310   23.4040   35.5060 h1         5 MGO      0.064468
     94 O3         22.9930   25.3430   36.2440 oh         5 MGO     -0.592567
     95 HO3        23.6900   25.1820   36.8950 ho         5 MGO      0.421017
     96 C4         22.5310   24.8580   33.9250 c3         5 MGO      0.127621
     97 H4         22.8940   25.8670   33.7120 h1         5 MGO      0.080661
     98 C5         22.8620   23.9320   32.7440 c3         5 MGO      0.104343
     99 H5         22.4510   22.9460   32.9670 h1         5 MGO      0.068516
    100 O5         24.3400   23.7990   32.6350 os         5 MGO     -0.427383
    101 C6         22.2960   24.3320   31.3730 c3         5 MGO      0.141081
    102 H61        21.3060   23.8900   31.2410 h1         5 MGO      0.057384
    103 H62        22.9430   23.9590   30.5760 h1         5 MGO      0.057384
    104 O6         22.1780   25.7570   31.2670 oh         5 MGO     -0.593555
    105 HO6        21.3030   26.0110   31.5900 ho         5 MGO      0.422027
    106 C1         25.5900   17.9270   33.8590 c3         6 MGO      0.304529
    107 H1         26.2360   17.0360   33.7310 h2         6 MGO      0.090782
    108 O1         24.2040   17.5470   34.1620 os         6 MGO     -0.453070
    109 C2         26.1390   18.7460   35.0240 c3         6 MGO      0.092199
    110 H2         27.1890   18.9890   34.8390 h1         6 MGO      0.102926
    111 O2         26.0250   17.9940   36.2420 oh         6 MGO     -0.586639
    112 HO2        25.3910   17.2670   36.1270 ho         6 MGO      0.425065
    113 C3         25.3360   20.0160   35.2120 c3         6 MGO      0.093211
    114 H3         24.3140   19.7640   35.5070 h1         6 MGO      0.064468
    115 O3         25.9930   20.7690   36.2450 oh         6 MGO     -0.592567
    116 HO3        26.3020   20.1230   36.8960 ho         6 MGO      0.421017
    117 C4         25.3270   20.8270   33.9250 c3         6 MGO      0.127621
    118 H4         26.3410   21.1720   33.7130 h1         6 MGO      0.080661
    119 C5         24.8100   19.9900   32.7450 c3         6 MGO      0.104343
    120 H5         23.7830   19.6970   32.9660 h1         6 MGO      0.068516
    121 O5         25.6270   18.7520   32.6360 os         6 MGO     -0.427383
    122 C6         24.7710   20.6820   31.3740 c3         6 MGO      0.141081
    123 H61        23.8070   21.1800   31.2420 h1         6 MGO      0.057384
    124 H62        24.8820   19.9420   30.5770 h1         6 MGO      0.057384
    125 O6         25.8110   21.6630   31.2680 oh         6 MGO     -0.593555
    126 HO6        25.4630   22.5060   31.5890 ho         6 MGO      0.422027
    127 C1         21.8140   14.1140   33.8590 c3         7 MGO      0.304529
    128 H1         21.5200   13.0540   33.7310 h2         7 MGO      0.090782
    129 O1         20.6540   14.9610   34.1620 os         7 MGO     -0.453070
    130 C2         22.7970   14.1950   35.0240 c3         7 MGO      0.092199
    131 H2         23.6420   13.5260   34.8390 h1         7 MGO      0.102926
    132 O2         22.1370   13.8160   36.2420 oh         7 MGO     -0.586639
    133 HO2        21.1740   13.8580   36.1270 ho         7 MGO      0.425065
    134 C3         23.2900   15.6150   35.2120 c3         7 MGO      0.093211
    135 H3         22.4550   16.2570   35.5070 h1         7 MGO      0.064468
    136 O3         24.2870   15.5700   36.2460 oh         7 MGO     -0.592567
    137 HO3        23.9750   14.9260   36.8960 ho         7 MGO      0.421017
    138 C4         23.9180   16.1290   33.9260 c3         7 MGO      0.127621
    139 H4         24.8200   15.5490   33.7140 h1         7 MGO      0.080661
    140 C5         22.9420   16.0100   32.7440 c3         7 MGO      0.104343
    141 H5         22.0720   16.6310   32.9670 h1         7 MGO      0.068516
    142 O5         22.4830   14.6000   32.6370 os         7 MGO     -0.427383
    143 C6         23.4580   16.4730   31.3740 c3         7 MGO      0.141081
    144 H61        23.2470   17.5360   31.2410 h1         7 MGO      0.057384
    145 H62        22.9500   15.9250   30.5770 h1         7 MGO      0.057384
    146 O6         24.8740   16.2710   31.2690 oh         7 MGO     -0.593555
    147 HO6        25.3160   17.0680   31.5910 ho         7 MGO      0.422027
@<TRIPOS>BOND
    1    17    20 1
    2    14    16 1
    3    14    17 1
    4    12    14 1
    5    12   129 1
    6     8    10 1
    7     8    12 1
    8     4     6 1
    9     4     8 1
   10     3    33 1
   11     1     3 1
   12     1     4 1
   13     1    16 1
   14    38    41 1
   15    35    37 1
   16    35    38 1
   17    33    35 1
   18    29    31 1
   19    29    33 1
   20    25    27 1
   21    25    29 1
   22    24    54 1
   23    22    24 1
   24    22    25 1
   25    22    37 1
   26    59    62 1
   27    56    58 1
   28    56    59 1
   29    54    56 1
   30    50    52 1
   31    50    54 1
   32    46    48 1
   33    46    50 1
   34    45    75 1
   35    43    45 1
   36    43    46 1
   37    43    58 1
   38    80    83 1
   39    77    79 1
   40    77    80 1
   41    75    77 1
   42    71    73 1
   43    71    75 1
   44    67    69 1
   45    67    71 1
   46    66    96 1
   47    64    66 1
   48    64    67 1
   49    64    79 1
   50   101   104 1
   51    98   100 1
   52    98   101 1
   53    96    98 1
   54    92    94 1
   55    92    96 1
   56    88    90 1
   57    88    92 1
   58    87   117 1
   59    85    87 1
   60    85    88 1
   61    85   100 1
   62   122   125 1
   63   119   121 1
   64   119   122 1
   65   117   119 1
   66   113   115 1
   67   113   117 1
   68   109   111 1
   69   109   113 1
   70   108   138 1
   71   106   108 1
   72   106   109 1
   73   106   121 1
   74   143   146 1
   75   140   142 1
   76   140   143 1
   77   138   140 1
   78   134   136 1
   79   134   138 1
   80   130   132 1
   81   130   134 1
   82   127   129 1
   83   127   130 1
   84   127   142 1
   85    20    21 1
   86    17    18 1
   87    17    19 1
   88    14    15 1
   89    12    13 1
   90    10    11 1
   91     8     9 1
   92     6     7 1
   93     4     5 1
   94     1     2 1
   95    41    42 1
   96    38    39 1
   97    38    40 1
   98    35    36 1
   99    33    34 1
  100    31    32 1
  101    29    30 1
  102    27    28 1
  103    25    26 1
  104    22    23 1
  105    62    63 1
  106    59    60 1
  107    59    61 1
  108    56    57 1
  109    54    55 1
  110    52    53 1
  111    50    51 1
  112    48    49 1
  113    46    47 1
  114    43    44 1
  115    83    84 1
  116    80    81 1
  117    80    82 1
  118    77    78 1
  119    75    76 1
  120    73    74 1
  121    71    72 1
  122    69    70 1
  123    67    68 1
  124    64    65 1
  125   104   105 1
  126   101   102 1
  127   101   103 1
  128    98    99 1
  129    96    97 1
  130    94    95 1
  131    92    93 1
  132    90    91 1
  133    88    89 1
  134    85    86 1
  135   125   126 1
  136   122   123 1
  137   122   124 1
  138   119   120 1
  139   117   118 1
  140   115   116 1
  141   113   114 1
  142   111   112 1
  143   109   110 1
  144   106   107 1
  145   146   147 1
  146   143   144 1
  147   143   145 1
  148   140   141 1
  149   138   139 1
  150   136   137 1
  151   134   135 1
  152   132   133 1
  153   130   131 1
  154   127   128 1
@<TRIPOS>SUBSTRUCTURE
      1 MGO               1 ****               0 ****  **** 
      2 MGO              22 ****               0 ****  **** 
      3 MGO              43 ****               0 ****  **** 
      4 MGO              64 ****               0 ****  **** 
      5 MGO              85 ****               0 ****  **** 
      6 MGO             106 ****               0 ****  **** 
      7 MGO             127 ****               0 ****  **** 
