@<TRIPOS>MOLECULE
Cpptraj
   17    17     1     0     0
SMALL
No Charge or Current Charge


@<TRIPOS>ATOM
      1 C1          18.3580    20.0970    37.4670 C.2        1 PHA       0.918165
      2 O1          17.9380    21.2220    37.6880 O.co2      1 PHA      -0.842199
      3 O2          17.6710    19.1140    37.6880 O.co2      1 PHA      -0.842199
      4 C2          19.7690    19.9190    36.9180 C.3        1 PHA      -0.176183
      5 H1          20.2020    18.9830    37.2870 H          1 PHA       0.037182
      6 H2          20.4210    20.7180    37.2860 H          1 PHA       0.037182
      7 C3          19.7680    19.9200    35.3980 C.ar       1 PHA      -0.014307
      8 C4          19.6180    18.7230    34.6930 C.ar       1 PHA      -0.138566
      9 H3          19.4970    17.7850    35.2340 H          1 PHA       0.151928
     10 C5          19.6180    18.7230    33.2980 C.ar       1 PHA      -0.145569
     11 H4          19.4990    17.7860    32.7540 H          1 PHA       0.106450
     12 C6          19.7690    19.9190    32.6010 C.ar       1 PHA      -0.169080
     13 H5          19.7690    19.9190    31.5110 H          1 PHA       0.102951
     14 C7          19.9200    21.1150    33.2980 C.ar       1 PHA      -0.145569
     15 H6          20.0380    22.0510    32.7540 H          1 PHA       0.106450
     16 C8          19.9200    21.1150    34.6930 C.ar       1 PHA      -0.138566
     17 H7          20.0370    22.0530    35.2330 H          1 PHA       0.151930
@<TRIPOS>BOND
     1    14    16 ar  
     2    12    14 ar  
     3    10    12 ar  
     4     8    10 ar  
     5     7     8 ar  
     6     7    16 ar  
     7     4     7 1   
     8     1     2 1   
     9     1     3 1   
    10     1     4 1   
    11    16    17 1   
    12    14    15 1   
    13    12    13 1   
    14    10    11 1   
    15     8     9 1   
    16     4     5 1   
    17     4     6 1   
@<TRIPOS>SUBSTRUCTURE
     1 PHA         1 TEMP              0 ****  ****    0 ROOT
