@<TRIPOS>MOLECULE
PAM
   20    19     1     0     0
SMALL
bcc


@<TRIPOS>ATOM
      1 N1          0.0000   -0.0000    7.2650 n4        1 PAM     -0.839354
      2 H1         -1.0290   -0.0230    7.3540 hn        1 PAM      0.461935
      3 H2          0.3380   -0.9720    7.3540 hn        1 PAM      0.461935
      4 HN11        0.3640    0.5240    8.0780 hn        1 PAM      0.461935
      5 C1          0.4340    0.6260    5.9590 c3        1 PAM      0.098829
      6 H3          1.5270    0.6450    5.9540 hx        1 PAM      0.113733
      7 H4          0.0700    1.6560    5.9540 hx        1 PAM      0.113733
      8 C2         -0.0820   -0.1180    4.7130 c3        1 PAM     -0.111367
      9 H5          0.2760   -1.1510    4.7300 hc        1 PAM      0.069720
     10 H6         -1.1750   -0.1450    4.7300 hc        1 PAM      0.069720
     11 C3          0.4000    0.5770    3.4230 c3        1 PAM     -0.080376
     12 H7          1.4930    0.6050    3.4090 hc        1 PAM      0.057717
     13 H8          0.0440    1.6100    3.4090 hc        1 PAM      0.057717
     14 C4         -0.1100   -0.1590    2.1650 c3        1 PAM     -0.078377
     15 H9          0.2460   -1.1920    2.1730 hc        1 PAM      0.048714
     16 H10        -1.2030   -0.1860    2.1730 hc        1 PAM      0.048714
     17 C5          0.3710    0.5340    0.8770 c3        1 PAM     -0.098071
     18 H11         1.4620    0.5510    0.8320 hc        1 PAM      0.047714
     19 H12        -0.0000    0.0000    0.0000 hc        1 PAM      0.047714
     20 H13         0.0050    1.5630    0.8320 hc        1 PAM      0.047715
@<TRIPOS>BOND
     1    1    2 1   
     2    1    3 1   
     3    1    4 1   
     4    1    5 1   
     5    5    6 1   
     6    5    7 1   
     7    5    8 1   
     8    8    9 1   
     9    8   10 1   
    10    8   11 1   
    11   11   12 1   
    12   11   13 1   
    13   11   14 1   
    14   14   15 1   
    15   14   16 1   
    16   14   17 1   
    17   17   18 1   
    18   17   19 1   
    19   17   20 1   
@<TRIPOS>SUBSTRUCTURE
     1 PAM         1 TEMP              0 ****  ****    0 ROOT
