@<TRIPOS>MOLECULE
MHA
   26    25     1     0     0
SMALL
bcc


@<TRIPOS>ATOM
      1 C1          0.0000    0.0000   -0.0000 c3        1 MHA     -0.097075
      2 H3         -0.1930    0.6050   -0.8880 hc        1 MHA      0.043378
      3 H4          1.0340   -0.3530   -0.0430 hc        1 MHA      0.043378
      4 H5         -0.6650   -0.8660   -0.0230 hc        1 MHA      0.043378
      5 C2         -0.2370    0.8330    1.2740 c3        1 MHA     -0.079379
      6 H6         -1.2680    1.1950    1.2800 hc        1 MHA      0.045212
      7 H7          0.4200    1.7060    1.2600 hc        1 MHA      0.045212
      8 C3          0.0300    0.0010    2.5450 c3        1 MHA     -0.081379
      9 H8         -0.6280   -0.8720    2.5530 hc        1 MHA      0.049213
     10 H9          1.0600   -0.3620    2.5350 hc        1 MHA      0.049213
     11 C4         -0.2100    0.8360    3.8220 c3        1 MHA     -0.079379
     12 H10        -1.2420    1.1960    3.8320 hc        1 MHA      0.055714
     13 H11         0.4460    1.7110    3.8050 hc        1 MHA      0.055714
     14 C5          0.0570    0.0020    5.0940 c3        1 MHA     -0.109372
     15 H12        -0.5720   -0.8920    5.0640 hc        1 MHA      0.069218
     16 H13         1.0970   -0.3360    5.1040 hc        1 MHA      0.069218
     17 C6         -0.2510    0.7890    6.3880 c3        1 MHA      0.128533
     18 H14         0.4130    1.6570    6.4370 hx        1 MHA      0.111729
     19 C7         -1.7070    1.2810    6.3470 c3        1 MHA     -0.138064
     20 H15        -2.4070    0.4410    6.3000 hc        1 MHA      0.082721
     21 H16        -1.8740    1.9140    5.4720 hc        1 MHA      0.082721
     22 H17        -1.9410    1.8740    7.2350 hc        1 MHA      0.082721
     23 N1          0.0000    0.0000    7.6390 n4        1 MHA     -0.847381
     24 H1          0.9860   -0.2980    7.7100 hn        1 MHA      0.458252
     25 H2         -0.2110    0.5570    8.4820 hn        1 MHA      0.458252
     26 HN11       -0.5850   -0.8480    7.6730 hn        1 MHA      0.458252
@<TRIPOS>BOND
     1    1    2 1   
     2    1    3 1   
     3    1    4 1   
     4    1    5 1   
     5    5    6 1   
     6    5    7 1   
     7    5    8 1   
     8    8    9 1   
     9    8   10 1   
    10    8   11 1   
    11   11   12 1   
    12   11   13 1   
    13   11   14 1   
    14   14   15 1   
    15   14   16 1   
    16   14   17 1   
    17   17   18 1   
    18   17   19 1   
    19   17   23 1   
    20   19   20 1   
    21   19   21 1   
    22   19   22 1   
    23   23   24 1   
    24   23   25 1   
    25   23   26 1   
@<TRIPOS>SUBSTRUCTURE
     1 MHA         1 TEMP              0 ****  ****    0 ROOT
