@<TRIPOS>MOLECULE
Cpptraj generated mol2 file.
   13    12     1     0     0
SMALL
USER_CHARGES


@<TRIPOS>ATOM
      1 C1         18.7360   19.9500   37.1810 c          1 BUT      0.907309
      2 O1         18.6710   21.1680   37.2190 o          1 BUT     -0.855574
      3 O2         18.7700   19.3080   38.2170 o          1 BUT     -0.855574
      4 C2         18.7760   19.1950   35.8520 c3         1 BUT     -0.192462
      5 H1         17.9320   18.4990   35.8060 hc         1 BUT      0.018694
      6 H2         19.6890   18.5920   35.8060 hc         1 BUT      0.018694
      7 C3         18.7270   20.1200   34.6150 c3         1 BUT     -0.066421
      8 H3         17.8100   20.7150   34.6320 hc         1 BUT      0.042686
      9 H4         19.5750   20.8090   34.6320 hc         1 BUT      0.042686
     10 C4         18.7700   19.3080   33.3080 c3         1 BUT     -0.087128
     11 H5         17.9180   18.6260   33.2470 hc         1 BUT      0.009030
     12 H6         18.7340   19.9780   32.4450 hc         1 BUT      0.009030
     13 H7         19.6900   18.7210   33.2470 hc         1 BUT      0.009030
@<TRIPOS>BOND
    1     7    10 1
    2     4     7 1
    3     1     2 1
    4     1     3 1
    5     1     4 1
    6    10    11 1
    7    10    12 1
    8    10    13 1
    9     7     8 1
   10     7     9 1
   11     4     5 1
   12     4     6 1
@<TRIPOS>SUBSTRUCTURE
      1 BUT               1 ****               0 ****  **** 
