@<TRIPOS>MOLECULE
Cpptraj generated mol2 file.
  126   132     6     0     0
SMALL
USER_CHARGES


@<TRIPOS>ATOM
      1 C1         18.2070   14.1200   34.9540 c3         1 MGO      0.304529
      2 H1         17.4950   13.2780   34.8520 h2         1 MGO      0.090782
      3 O1         17.5100   15.3830   35.2270 os         1 MGO     -0.453070
      4 C2         19.1390   13.8290   36.1260 c3         1 MGO      0.092199
      5 H2         19.6530   12.8770   35.9660 h1         1 MGO      0.102926
      6 O2         18.3670   13.7710   37.3370 oh         1 MGO     -0.586639
      7 HO2        17.5210   14.2230   37.2040 ho         1 MGO      0.425065
      8 C3         20.1440   14.9500   36.2940 c3         1 MGO      0.093211
      9 H3         19.6180   15.8660   36.5760 h1         1 MGO      0.064468
     10 O3         21.0460   14.5480   37.3370 oh         1 MGO     -0.592567
     11 HO3        20.5140   14.0830   37.9980 ho         1 MGO      0.421017
     12 C4         20.9270   15.1830   35.0100 c3         1 MGO      0.127621
     13 H4         21.5960   14.3350   34.8390 h1         1 MGO      0.080661
     14 C5         19.9960   15.3760   33.8000 c3         1 MGO      0.104343
     15 H5         19.4280   16.2940   33.9670 h1         1 MGO      0.068516
     16 O5         19.0260   14.2480   33.7350 os         1 MGO     -0.427383
     17 C6         20.6570   15.5340   32.4240 c3         1 MGO      0.141081
     18 H61        20.8190   16.5930   32.2120 h1         1 MGO      0.057384
     19 H62        20.0060   15.1300   31.6440 h1         1 MGO      0.057384
     20 O6         21.9230   14.8620   32.3850 oh         1 MGO     -0.593555
     21 HO6        22.6020   15.4880   32.6690 ho         1 MGO      0.422027
     22 C1         13.8090   17.1950   34.6490 c3         2 MGO      0.304529
     23 H1         12.7330   17.3860   34.4680 h2         2 MGO      0.090782
     24 O1         14.5300   18.4370   34.9530 os         2 MGO     -0.453070
     25 C2         13.9400   16.2630   35.8490 c3         2 MGO      0.092199
     26 H2         13.3860   15.3370   35.6650 h1         2 MGO      0.102926
     27 O2         13.4190   16.9200   37.0150 oh         2 MGO     -0.586639
     28 HO2        13.3950   17.8770   36.8650 ho         2 MGO      0.425065
     29 C3         15.3990   15.9600   36.1250 c3         2 MGO      0.093211
     30 H3         15.9060   16.8800   36.4290 h1         2 MGO      0.064468
     31 O3         15.4300   14.9950   37.1890 oh         2 MGO     -0.592567
     32 HO3        14.7160   15.2330   37.7980 ho         2 MGO      0.421017
     33 C4         16.0820   15.3780   34.8960 c3         2 MGO      0.127621
     34 H4         15.6970   14.3710   34.7140 h1         2 MGO      0.080661
     35 C5         15.8670   16.2610   33.6520 c3         2 MGO      0.104343
     36 H5         16.3650   17.2150   33.8390 h1         2 MGO      0.068516
     37 O5         14.4140   16.5310   33.4810 os         2 MGO     -0.427383
     38 C6         16.4310   15.7450   32.3200 c3         2 MGO      0.141081
     39 H61        17.4410   16.1330   32.1730 h1         2 MGO      0.057384
     40 H62        15.8120   16.0930   31.4900 h1         2 MGO      0.057384
     41 O6         16.4870   14.3130   32.3100 oh         2 MGO     -0.593555
     42 HO6        17.3470   14.0450   32.6590 ho         2 MGO      0.422027
     43 C1         14.2830   22.5370   34.2900 c3         3 MGO      0.304529
     44 H1         13.9220   23.5590   34.0660 h2         3 MGO      0.090782
     45 O1         15.6940   22.5430   34.6940 os         3 MGO     -0.453070
     46 C2         13.4600   21.9750   35.4440 c3         3 MGO      0.092199
     47 H2         12.3970   21.9840   35.1850 h1         3 MGO      0.102926
     48 O2         13.6840   22.7740   36.6160 oh         3 MGO     -0.586639
     49 HO2        14.5090   23.2740   36.5150 ho         3 MGO      0.425065
     50 C3         13.9080   20.5660   35.7750 c3         3 MGO      0.093211
     51 H3         14.9350   20.5940   36.1520 h1         3 MGO      0.064468
     52 O3         13.0170   20.0720   36.7880 oh         3 MGO     -0.592567
     53 HO3        12.8230   20.8180   37.3710 ho         3 MGO      0.421017
     54 C4         13.8350   19.6630   34.5520 c3         3 MGO      0.127621
     55 H4         12.7860   19.4880   34.2980 h1         3 MGO      0.080661
     56 C5         14.5770   20.2720   33.3480 c3         3 MGO      0.104343
     57 H5         15.6350   20.3240   33.6090 h1         3 MGO      0.068516
     58 O5         14.0960   21.6610   33.1190 os         3 MGO     -0.427383
     59 C6         14.5080   19.5040   32.0200 c3         3 MGO      0.141081
     60 H61        15.3590   18.8240   31.9440 h1         3 MGO      0.057384
     61 H62        14.5560   20.2000   31.1800 h1         3 MGO      0.057384
     62 O6         13.3000   18.7360   31.9360 oh         3 MGO     -0.593555
     63 HO6        13.4750   17.8640   32.3140 ho         3 MGO      0.422027
     64 C1         19.1550   24.8060   34.2360 c3         4 MGO      0.304529
     65 H1         19.8740   25.6270   34.0480 h2         4 MGO      0.090782
     66 O1         19.8380   23.5940   34.7080 os         4 MGO     -0.453070
     67 C2         18.1780   25.2540   35.3160 c3         4 MGO      0.092199
     68 H2         17.6730   26.1730   35.0060 h1         4 MGO      0.102926
     69 O2         18.8970   25.4800   36.5390 oh         4 MGO     -0.586639
     70 HO2        19.7480   25.0150   36.5050 ho         4 MGO      0.425065
     71 C3         17.1630   24.1630   35.5950 c3         4 MGO      0.093211
     72 H3         17.6750   23.2960   36.0230 h1         4 MGO      0.064468
     73 O3         16.2200   24.7010   36.5350 oh         4 MGO     -0.592567
     74 HO3        16.7250   25.2540   37.1470 ho         4 MGO      0.421017
     75 C4         16.4330   23.7540   34.3240 c3         4 MGO      0.127621
     76 H4         15.7750   24.5680   34.0100 h1         4 MGO      0.080661
     77 C5         17.4140   23.3980   33.1920 c3         4 MGO      0.104343
     78 H5         17.9710   22.5140   33.5070 h1         4 MGO      0.068516
     79 O5         18.3880   24.5080   33.0120 os         4 MGO     -0.427383
     80 C6         16.8100   23.0510   31.8240 c3         4 MGO      0.141081
     81 H61        16.6530   21.9720   31.7530 h1         4 MGO      0.057384
     82 H62        17.4930   23.3450   31.0250 h1         4 MGO      0.057384
     83 O6         15.5490   23.7070   31.6400 oh         4 MGO     -0.593555
     84 HO6        14.8570   23.1240   31.9790 ho         4 MGO      0.422027
     85 C1         23.5540   21.7320   34.5390 c3         5 MGO      0.304529
     86 H1         24.6360   21.5200   34.4300 h2         5 MGO      0.090782
     87 O1         22.8170   20.5410   34.9810 os         5 MGO     -0.453070
     88 C2         23.3770   22.8190   35.5930 c3         5 MGO      0.092199
     89 H2         23.9390   23.7120   35.3070 h1         5 MGO      0.102926
     90 O2         23.8460   22.3290   36.8600 oh         5 MGO     -0.586639
     91 HO2        23.8730   21.3610   36.8430 ho         5 MGO      0.425065
     92 C3         21.9090   23.1530   35.7640 c3         5 MGO      0.093211
     93 H3         21.3860   22.2820   36.1700 h1         5 MGO      0.064468
     94 O3         21.8360   24.2550   36.6840 oh         5 MGO     -0.592567
     95 HO3        22.5220   24.1050   37.3470 ho         5 MGO      0.421017
     96 C4         21.2790   23.5590   34.4390 c3         5 MGO      0.127621
     97 H4         21.6740   24.5310   34.1370 h1         5 MGO      0.080661
     98 C5         21.5420   22.5140   33.3390 c3         5 MGO      0.104343
     99 H5         21.0350   21.5930   33.6340 h1         5 MGO      0.068516
    100 O5         22.9990   22.2270   33.2660 os         5 MGO     -0.427383
    101 C6         21.0360   22.8400   31.9270 c3         5 MGO      0.141081
    102 H61        20.0310   22.4310   31.7930 h1         5 MGO      0.057384
    103 H62        21.6880   22.3830   31.1780 h1         5 MGO      0.057384
    104 O6         20.9840   24.2570   31.7160 oh         5 MGO     -0.593555
    105 HO6        20.1120   24.5670   31.9900 ho         5 MGO      0.422027
    106 C1         23.0800   16.3890   34.8990 c3         6 MGO      0.304529
    107 H1         23.4470   15.3460   34.8310 h2         6 MGO      0.090782
    108 O1         21.6530   16.4350   35.2410 os         6 MGO     -0.453070
    109 C2         23.8560   17.1070   35.9970 c3         6 MGO      0.092199
    110 H2         24.9290   17.0650   35.7860 h1         6 MGO      0.102926
    111 O2         23.5810   16.4750   37.2580 oh         6 MGO     -0.586639
    112 HO2        22.7600   15.9650   37.1930 ho         6 MGO      0.425065
    113 C3         23.3990   18.5460   36.1130 c3         6 MGO      0.093211
    114 H3         22.3570   18.5670   36.4470 h1         6 MGO      0.064468
    115 O3         24.2490   19.1780   37.0840 oh         6 MGO     -0.592567
    116 HO3        24.4160   18.5190   37.7720 ho         6 MGO      0.421017
    117 C4         23.5250   19.2730   34.7820 c3         6 MGO      0.127621
    118 H4         24.5850   19.4150   34.5500 h1         6 MGO      0.080661
    119 C5         22.8330   18.5020   33.6430 c3         6 MGO      0.104343
    120 H5         21.7630   18.4830   33.8640 h1         6 MGO      0.068516
    121 O5         23.3190   17.0960   33.6270 os         6 MGO     -0.427383
    122 C6         22.9580   19.0810   32.2260 c3         6 MGO      0.141081
    123 H61        22.1130   19.7420   32.0220 h1         6 MGO      0.057384
    124 H62        22.9430   18.2750   31.4880 h1         6 MGO      0.057384
    125 O6         24.1710   19.8330   32.0880 oh         6 MGO     -0.593555
    126 HO6        23.9840   20.7490   32.3340 ho         6 MGO      0.422027
@<TRIPOS>BOND
    1    17    20 1
    2    14    16 1
    3    14    17 1
    4    12    14 1
    5    12   108 1
    6     8    10 1
    7     8    12 1
    8     4     6 1
    9     4     8 1
   10     3    33 1
   11     1     3 1
   12     1     4 1
   13     1    16 1
   14    38    41 1
   15    35    37 1
   16    35    38 1
   17    33    35 1
   18    29    31 1
   19    29    33 1
   20    25    27 1
   21    25    29 1
   22    24    54 1
   23    22    24 1
   24    22    25 1
   25    22    37 1
   26    59    62 1
   27    56    58 1
   28    56    59 1
   29    54    56 1
   30    50    52 1
   31    50    54 1
   32    46    48 1
   33    46    50 1
   34    45    75 1
   35    43    45 1
   36    43    46 1
   37    43    58 1
   38    80    83 1
   39    77    79 1
   40    77    80 1
   41    75    77 1
   42    71    73 1
   43    71    75 1
   44    67    69 1
   45    67    71 1
   46    66    96 1
   47    64    66 1
   48    64    67 1
   49    64    79 1
   50   101   104 1
   51    98   100 1
   52    98   101 1
   53    96    98 1
   54    92    94 1
   55    92    96 1
   56    88    90 1
   57    88    92 1
   58    87   117 1
   59    85    87 1
   60    85    88 1
   61    85   100 1
   62   122   125 1
   63   119   121 1
   64   119   122 1
   65   117   119 1
   66   113   115 1
   67   113   117 1
   68   109   111 1
   69   109   113 1
   70   106   108 1
   71   106   109 1
   72   106   121 1
   73    20    21 1
   74    17    18 1
   75    17    19 1
   76    14    15 1
   77    12    13 1
   78    10    11 1
   79     8     9 1
   80     6     7 1
   81     4     5 1
   82     1     2 1
   83    41    42 1
   84    38    39 1
   85    38    40 1
   86    35    36 1
   87    33    34 1
   88    31    32 1
   89    29    30 1
   90    27    28 1
   91    25    26 1
   92    22    23 1
   93    62    63 1
   94    59    60 1
   95    59    61 1
   96    56    57 1
   97    54    55 1
   98    52    53 1
   99    50    51 1
  100    48    49 1
  101    46    47 1
  102    43    44 1
  103    83    84 1
  104    80    81 1
  105    80    82 1
  106    77    78 1
  107    75    76 1
  108    73    74 1
  109    71    72 1
  110    69    70 1
  111    67    68 1
  112    64    65 1
  113   104   105 1
  114   101   102 1
  115   101   103 1
  116    98    99 1
  117    96    97 1
  118    94    95 1
  119    92    93 1
  120    90    91 1
  121    88    89 1
  122    85    86 1
  123   125   126 1
  124   122   123 1
  125   122   124 1
  126   119   120 1
  127   117   118 1
  128   115   116 1
  129   113   114 1
  130   111   112 1
  131   109   110 1
  132   106   107 1
@<TRIPOS>SUBSTRUCTURE
      1 MGO               1 ****               0 ****  **** 
      2 MGO              22 ****               0 ****  **** 
      3 MGO              43 ****               0 ****  **** 
      4 MGO              64 ****               0 ****  **** 
      5 MGO              85 ****               0 ****  **** 
      6 MGO             106 ****               0 ****  **** 
