@<TRIPOS>MOLECULE
Cpptraj generated mol2 file.
   20    19     1     0     0
SMALL
USER_CHARGES


@<TRIPOS>ATOM
      1 C1         18.9730   18.8020   31.8880 c2         1 HP6     -0.257064
      2 H1         19.0050   17.7480   32.1670 ha         1 HP6      0.100975
      3 H2         19.3590   19.0640   30.9020 ha         1 HP6      0.100975
      4 C2         18.4880   19.7270   32.7070 c2         1 HP6     -0.140235
      5 H3         18.4680   20.7740   32.4030 ha         1 HP6      0.111972
      6 C3         17.9360   19.4300   34.0860 c3         1 HP6     -0.058215
      7 H4         17.7820   18.3550   34.2090 hc         1 HP6      0.046688
      8 H5         16.9620   19.9130   34.1960 hc         1 HP6      0.046688
      9 C4         18.8870   19.9380   35.1890 c3         1 HP6     -0.075419
     10 H6         19.8620   19.4570   35.0790 hc         1 HP6      0.028193
     11 H7         19.0350   21.0150   35.0740 hc         1 HP6      0.028193
     12 C5         18.3220   19.6440   36.5960 c3         1 HP6     -0.066417
     13 H8         18.1740   18.5670   36.7120 hc         1 HP6      0.044189
     14 H9         17.3470   20.1250   36.7050 hc         1 HP6      0.044189
     15 C6         19.2730   20.1520   37.6990 c3         1 HP6     -0.194449
     16 H10        20.2530   19.6780   37.5840 hc         1 HP6      0.019195
     17 H11        19.4300   21.2290   37.5770 hc         1 HP6      0.019195
     18 C7         18.7020   19.8550   39.0850 c          1 HP6      0.907373
     19 O1         18.9730   18.8020   39.6380 o          1 HP6     -0.853013
     20 O2         17.9790   20.6740   39.6290 o          1 HP6     -0.853013
@<TRIPOS>BOND
    1    18    19 1
    2    18    20 1
    3    15    18 1
    4    12    15 1
    5     9    12 1
    6     6     9 1
    7     4     6 1
    8     1     4 1
    9    15    16 1
   10    15    17 1
   11    12    13 1
   12    12    14 1
   13     9    10 1
   14     9    11 1
   15     6     7 1
   16     6     8 1
   17     4     5 1
   18     1     2 1
   19     1     3 1
@<TRIPOS>SUBSTRUCTURE
      1 HP6               1 ****               0 ****  **** 
