@<TRIPOS>MOLECULE
Cpptraj
  126   132     1     0     0
SMALL
No Charge or Current Charge


@<TRIPOS>ATOM
      1 C1          13.4190    18.3760    35.2460 C.3        1 MGO       0.304529
      2 H1          12.4020    18.8090    35.1790 H          1 MGO       0.090782
      3 O1          14.4210    19.4040    35.5570 O.3        1 MGO      -0.453070
      4 C2          13.4340    17.3430    36.3680 C.3        1 MGO       0.092199
      5 H2          12.6760    16.5770    36.1800 H          1 MGO       0.102926
      6 O2          13.1660    18.0000    37.6170 O.3        1 MGO      -0.586639
      7 HO2         13.3440    18.9490    37.5290 H          1 MGO       0.425065
      8 C3          14.8050    16.7100    36.4850 C.3        1 MGO       0.093211
      9 H3          15.5270    17.4710    36.7960 H          1 MGO       0.064468
     10 O3          14.7050    15.6790    37.4800 O.3        1 MGO      -0.592567
     11 HO3         14.1120    16.0150    38.1660 H          1 MGO       0.421017
     12 C4          15.2430    16.0970    35.1630 C.3        1 MGO       0.127621
     13 H4          14.6300    15.2150    34.9560 H          1 MGO       0.080661
     14 C5          15.1340    17.1030    34.0030 C.3        1 MGO       0.104343
     15 H5          15.8430    17.9090    34.2010 H          1 MGO       0.068516
     16 O5          13.7680    17.6940    33.9860 O.3        1 MGO      -0.427383
     17 C6          15.4620    16.5880    32.5940 C.3        1 MGO       0.141081
     18 H61         16.5190    16.7600    32.3770 H          1 MGO       0.057384
     19 H62         14.8720    17.1280    31.8490 H          1 MGO       0.057384
     20 O6          15.1970    15.1830    32.4890 O.3        1 MGO      -0.593555
     21 HO6         16.0000    14.7080    32.7380 H          1 MGO       0.422027
     22 C1          15.0410    23.5000    35.1740 C.3        2 MGO       0.304529
     23 H1          14.9010    24.5920    35.0490 H          2 MGO       0.090782
     24 O1          16.4460    23.1680    35.4430 O.3        2 MGO      -0.453070
     25 C2          14.2070    23.0380    36.3640 C.3        2 MGO       0.092199
     26 H2          13.1560    23.2990    36.2080 H          2 MGO       0.102926
     27 O2          14.6960    23.6720    37.5570 O.3        2 MGO      -0.586639
     28 HO2         15.6000    23.9870    37.4100 H          2 MGO       0.425065
     29 C3          14.3560    21.5430    36.5640 C.3        2 MGO       0.093211
     30 H3          15.3890    21.3180    36.8420 H          2 MGO       0.064468
     31 O3          13.4580    21.1720    37.6230 O.3        2 MGO      -0.592567
     32 HO3         13.4820    21.8940    38.2680 H          2 MGO       0.421017
     33 C4          13.9860    20.7790    35.3000 C.3        2 MGO       0.127621
     34 H4          12.9080    20.8560    35.1370 H          2 MGO       0.080661
     35 C5          14.7480    21.3090    34.0710 C.3        2 MGO       0.104343
     36 H5          15.8090    21.1100    34.2330 H          2 MGO       0.068516
     37 O5          14.5710    22.7840    33.9750 O.3        2 MGO      -0.427383
     38 C6          14.4050    20.6850    32.7110 C.3        2 MGO       0.141081
     39 H61         15.0740    19.8450    32.5120 H          2 MGO       0.057384
     40 H62         14.5400    21.4200    31.9140 H          2 MGO       0.057384
     41 O6          13.0540    20.2060    32.6950 O.3        2 MGO      -0.593555
     42 HO6         13.0590    19.2880    32.9990 H          2 MGO       0.422027
     43 C1          20.2770    24.6570    34.7990 C.3        3 MGO       0.304529
     44 H1          21.1420    25.3170    34.5950 H          3 MGO       0.090782
     45 O1          20.7070    23.2930    35.1300 O.3        3 MGO      -0.453070
     46 C2          19.5110    25.2170    35.9930 C.3        3 MGO       0.092199
     47 H2          19.2000    26.2460    35.7890 H          3 MGO       0.102926
     48 O2          20.3570    25.1830    37.1540 O.3        3 MGO      -0.586639
     49 HO2         21.0780    24.5500    37.0110 H          3 MGO       0.425065
     50 C3          18.3040    24.3530    36.2980 C.3        3 MGO       0.093211
     51 H3          18.6420    23.3640    36.6210 H          3 MGO       0.064468
     52 O3          17.5810    25.0050    37.3560 O.3        3 MGO      -0.592567
     53 HO3         18.2440    25.3840    37.9490 H          3 MGO       0.421017
     54 C4          17.4030    24.2150    35.0800 C.3        3 MGO       0.127621
     55 H4          16.9200    25.1760    34.8800 H          3 MGO       0.080661
     56 C5          18.1890    23.7500    33.8400 C.3        3 MGO       0.104343
     57 H5          18.5570    22.7430    34.0460 H          3 MGO       0.068516
     58 O5          19.3680    24.6330    33.6380 O.3        3 MGO      -0.427383
     59 C6          17.4170    23.6530    32.5160 C.3        3 MGO       0.141081
     60 H61         17.0190    22.6430    32.3950 H          3 MGO       0.057384
     61 H62         18.0840    23.8560    31.6760 H          3 MGO       0.057384
     62 O6          16.3230    24.5800    32.4940 O.3        3 MGO      -0.593555
     63 HO6         15.5480    24.1340    32.8610 H          3 MGO       0.422027
     64 C1          23.8910    20.6910    34.4960 C.3        4 MGO       0.304529
     65 H1          24.8870    20.2600    34.2730 H          4 MGO       0.090782
     66 O1          22.9450    19.6560    34.9310 O.3        4 MGO      -0.453070
     67 C2          24.0430    21.7030    35.6270 C.3        4 MGO       0.092199
     68 H2          24.7660    22.4730    35.3440 H          4 MGO       0.102926
     69 O2          24.4900    21.0230    36.8100 O.3        4 MGO      -0.586639
     70 HO2         24.2990    20.0750    36.7320 H          4 MGO       0.425065
     71 C3          22.7040    22.3310    35.9560 C.3        4 MGO       0.093211
     72 H3          22.0350    21.5640    36.3550 H          4 MGO       0.064468
     73 O3          22.9500    23.3440    36.9440 O.3        4 MGO      -0.592567
     74 HO3         23.6370    22.9960    37.5300 H          4 MGO       0.421017
     75 C4          22.0780    22.9680    34.7240 C.3        4 MGO       0.127621
     76 H4          22.6550    23.8540    34.4460 H          4 MGO       0.080661
     77 C5          22.0150    21.9840    33.5420 C.3        4 MGO       0.104343
     78 H5          21.3410    21.1740    33.8260 H          4 MGO       0.068516
     79 O5          23.3620    21.3950    33.3140 O.3        4 MGO      -0.427383
     80 C6          21.4850    22.5250    32.2060 C.3        4 MGO       0.141081
     81 H61         20.4070    22.3560    32.1420 H          4 MGO       0.057384
     82 H62         21.9580    22.0010    31.3730 H          4 MGO       0.057384
     83 O6          21.7330    23.9310    32.0890 O.3        4 MGO      -0.593555
     84 HO6         20.9760    24.4000    32.4630 H          4 MGO       0.422027
     85 C1          22.2700    15.5670    34.5670 C.3        5 MGO       0.304529
     86 H1          22.3880    14.4780    34.4020 H          5 MGO       0.090782
     87 O1          20.9200    15.8930    35.0440 O.3        5 MGO      -0.453070
     88 C2          23.2700    16.0070    35.6300 C.3        5 MGO       0.092199
     89 H2          24.2860    15.7520    35.3160 H          5 MGO       0.102926
     90 O2          22.9600    15.3510    36.8700 O.3        5 MGO      -0.586639
     91 HO2         22.0430    15.0370    36.8500 H          5 MGO       0.425065
     92 C3          23.1540    17.4970    35.8770 C.3        5 MGO       0.093211
     93 H3          22.1730    17.7160    36.3090 H          5 MGO       0.064468
     94 O3          24.1970    17.8500    36.8010 O.3        5 MGO      -0.592567
     95 HO3         24.2680    17.1170    37.4280 H          5 MGO       0.421017
     96 C4          23.3360    18.2850    34.5870 C.3        5 MGO       0.127621
     97 H4          24.3770    18.2130    34.2670 H          5 MGO       0.080661
     98 C5          22.4010    17.7780    33.4730 C.3        5 MGO       0.104343
     99 H5          21.3750    17.9720    33.7930 H          5 MGO       0.068516
    100 O5          22.5590    16.3070    33.3250 O.3        5 MGO      -0.427383
    101 C6          22.5420    18.4280    32.0900 C.3        5 MGO       0.141081
    102 H61         21.8510    19.2710    32.0070 H          5 MGO       0.057384
    103 H62         22.2890    17.7080    31.3080 H          5 MGO       0.057384
    104 O6          23.8760    18.9100    31.8840 O.3        5 MGO      -0.593555
    105 HO6         23.9170    19.8200    32.2040 H          5 MGO       0.422027
    106 C1          17.0340    14.4090    34.9420 C.3        6 MGO       0.304529
    107 H1          16.1460    13.7520    34.8540 H          6 MGO       0.090782
    108 O1          16.6580    15.7660    35.3580 O.3        6 MGO      -0.453070
    109 C2          17.9650    13.8280    36.0000 C.3        6 MGO       0.092199
    110 H2          18.2410    12.8040    35.7330 H          6 MGO       0.102926
    111 O2          17.2980    13.8400    37.2730 O.3        6 MGO      -0.586639
    112 HO2         16.5660    14.4740    37.2490 H          6 MGO       0.425065
    113 C3          19.2050    14.6880    36.1410 C.3        6 MGO       0.093211
    114 H3          18.9190    15.6700    36.5290 H          6 MGO       0.064468
    115 O3          20.0740    14.0170    37.0670 O.3        6 MGO      -0.592567
    116 HO3         19.5050    13.6270    37.7450 H          6 MGO       0.421017
    117 C4          19.9170    14.8500    34.8060 C.3        6 MGO       0.127621
    118 H4          20.3650    13.8940    34.5200 H          6 MGO       0.080661
    119 C5          18.9600    15.3370    33.7040 C.3        6 MGO       0.104343
    120 H5          18.6260    16.3400    33.9800 H          6 MGO       0.068516
    121 O5          17.7620    14.4560    33.6610 O.3        6 MGO      -0.427383
    122 C6          19.5300    15.4610    32.2840 C.3        6 MGO       0.141081
    123 H61         19.9060    16.4740    32.1240 H          6 MGO       0.057384
    124 H62         18.7460    15.2720    31.5460 H          6 MGO       0.057384
    125 O6          20.6070    14.5350    32.0840 O.3        6 MGO      -0.593555
    126 HO6         21.4290    14.9750    32.3410 H          6 MGO       0.422027
@<TRIPOS>BOND
     1    17    20 1   
     2    14    16 1   
     3    14    17 1   
     4    12    14 1   
     5    12   108 1   
     6     8    10 1   
     7     8    12 1   
     8     4     6 1   
     9     4     8 1   
    10     3    33 1   
    11     1     3 1   
    12     1     4 1   
    13     1    16 1   
    14    38    41 1   
    15    35    37 1   
    16    35    38 1   
    17    33    35 1   
    18    29    31 1   
    19    29    33 1   
    20    25    27 1   
    21    25    29 1   
    22    24    54 1   
    23    22    24 1   
    24    22    25 1   
    25    22    37 1   
    26    59    62 1   
    27    56    58 1   
    28    56    59 1   
    29    54    56 1   
    30    50    52 1   
    31    50    54 1   
    32    46    48 1   
    33    46    50 1   
    34    45    75 1   
    35    43    45 1   
    36    43    46 1   
    37    43    58 1   
    38    80    83 1   
    39    77    79 1   
    40    77    80 1   
    41    75    77 1   
    42    71    73 1   
    43    71    75 1   
    44    67    69 1   
    45    67    71 1   
    46    66    96 1   
    47    64    66 1   
    48    64    67 1   
    49    64    79 1   
    50   101   104 1   
    51    98   100 1   
    52    98   101 1   
    53    96    98 1   
    54    92    94 1   
    55    92    96 1   
    56    88    90 1   
    57    88    92 1   
    58    87   117 1   
    59    85    87 1   
    60    85    88 1   
    61    85   100 1   
    62   122   125 1   
    63   119   121 1   
    64   119   122 1   
    65   117   119 1   
    66   113   115 1   
    67   113   117 1   
    68   109   111 1   
    69   109   113 1   
    70   106   108 1   
    71   106   109 1   
    72   106   121 1   
    73    20    21 1   
    74    17    18 1   
    75    17    19 1   
    76    14    15 1   
    77    12    13 1   
    78    10    11 1   
    79     8     9 1   
    80     6     7 1   
    81     4     5 1   
    82     1     2 1   
    83    41    42 1   
    84    38    39 1   
    85    38    40 1   
    86    35    36 1   
    87    33    34 1   
    88    31    32 1   
    89    29    30 1   
    90    27    28 1   
    91    25    26 1   
    92    22    23 1   
    93    62    63 1   
    94    59    60 1   
    95    59    61 1   
    96    56    57 1   
    97    54    55 1   
    98    52    53 1   
    99    50    51 1   
   100    48    49 1   
   101    46    47 1   
   102    43    44 1   
   103    83    84 1   
   104    80    81 1   
   105    80    82 1   
   106    77    78 1   
   107    75    76 1   
   108    73    74 1   
   109    71    72 1   
   110    69    70 1   
   111    67    68 1   
   112    64    65 1   
   113   104   105 1   
   114   101   102 1   
   115   101   103 1   
   116    98    99 1   
   117    96    97 1   
   118    94    95 1   
   119    92    93 1   
   120    90    91 1   
   121    88    89 1   
   122    85    86 1   
   123   125   126 1   
   124   122   123 1   
   125   122   124 1   
   126   119   120 1   
   127   117   118 1   
   128   115   116 1   
   129   113   114 1   
   130   111   112 1   
   131   109   110 1   
   132   106   107 1   
@<TRIPOS>SUBSTRUCTURE
     1 MGO         1 TEMP              0 ****  ****    0 ROOT
