@<TRIPOS>MOLECULE
Cpptraj generated mol2 file.
   26    25     1     0     0
SMALL
USER_CHARGES


@<TRIPOS>ATOM
      1 C1         19.4120   19.8080   31.6550 c3         1 HPA     -0.096074
      2 H3         18.3750   20.1500   31.6140 hc         1 HPA      0.040711
      3 H4         20.0680   20.6820   31.6140 hc         1 HPA      0.040711
      4 H5         19.6060   19.1920   30.7750 hc         1 HPA      0.040711
      5 C2         19.6670   18.9980   32.9400 c3         1 HPA     -0.079379
      6 H6         20.7020   18.6460   32.9430 hc         1 HPA      0.042711
      7 H7         19.0190   18.1180   32.9430 hc         1 HPA      0.042711
      8 C3         19.4010   19.8450   34.2010 c3         1 HPA     -0.080378
      9 H8         20.0480   20.7260   34.1910 hc         1 HPA      0.046713
     10 H9         18.3650   20.1970   34.1910 hc         1 HPA      0.046713
     11 C4         19.6560   19.0320   35.4870 c3         1 HPA     -0.079379
     12 H10        20.6910   18.6800   35.4960 hc         1 HPA      0.048713
     13 H11        19.0080   18.1520   35.4960 hc         1 HPA      0.048713
     14 C5         19.3900   19.8800   36.7480 c3         1 HPA     -0.079379
     15 H12        20.0380   20.7600   36.7390 hc         1 HPA      0.057715
     16 H13        18.3550   20.2310   36.7390 hc         1 HPA      0.057715
     17 C6         19.6450   19.0670   38.0340 c3         1 HPA     -0.111370
     18 H14        20.6810   18.7170   38.0470 hc         1 HPA      0.069719
     19 H15        18.9960   18.1870   38.0470 hc         1 HPA      0.069719
     20 C7         19.3760   19.9250   39.2840 c3         1 HPA      0.098826
     21 H16        20.0300   20.8010   39.2820 hx         1 HPA      0.113730
     22 H17        18.3380   20.2690   39.2820 hx         1 HPA      0.113730
     23 N1         19.6060   19.1920   40.5880 n4         1 HPA     -0.839375
     24 H1         20.5810   18.8620   40.6760 hn         1 HPA      0.461924
     25 H2         18.9950   18.3640   40.6760 hn         1 HPA      0.461924
     26 HN11       19.4160   19.7960   41.4050 hn         1 HPA      0.461925
@<TRIPOS>BOND
    1    20    23 1
    2    17    20 1
    3    14    17 1
    4    11    14 1
    5     8    11 1
    6     5     8 1
    7     1     5 1
    8    23    24 1
    9    23    25 1
   10    23    26 1
   11    20    21 1
   12    20    22 1
   13    17    18 1
   14    17    19 1
   15    14    15 1
   16    14    16 1
   17    11    12 1
   18    11    13 1
   19     8     9 1
   20     8    10 1
   21     5     6 1
   22     5     7 1
   23     1     2 1
   24     1     3 1
   25     1     4 1
@<TRIPOS>SUBSTRUCTURE
      1 HPA               1 ****               0 ****  **** 
