@<TRIPOS>MOLECULE
Cpptraj
  126   132     1     0     0
SMALL
No Charge or Current Charge


@<TRIPOS>ATOM
      1 C1          14.6920    16.8780    34.1200 C.3        1 MGO       0.304529
      2 H1          13.6020    16.9960    33.9610 H          1 MGO       0.090782
      3 O1          15.3220    18.1540    34.4830 O.3        1 MGO      -0.453070
      4 C2          14.9120    15.8960    35.2660 C.3        1 MGO       0.092199
      5 H2          14.4280    14.9420    35.0390 H          1 MGO       0.102926
      6 O2          14.3600    16.4490    36.4730 O.3        1 MGO      -0.586639
      7 HO2         14.2620    17.4080    36.3740 H          1 MGO       0.425065
      8 C3          16.3930    15.6910    35.5090 C.3        1 MGO       0.093211
      9 H3          16.8340    16.6300    35.8570 H          1 MGO       0.064468
     10 O3          16.5130    14.6770    36.5190 O.3        1 MGO      -0.592567
     11 HO3         15.7930    14.8270    37.1470 H          1 MGO       0.421017
     12 C4          17.1000    15.2300    34.2430 C.3        1 MGO       0.127621
     13 H4          16.7890    14.2070    34.0110 H          1 MGO       0.080661
     14 C5          16.8010    16.1580    33.0520 C.3        1 MGO       0.104343
     15 H5          17.2260    17.1370    33.2840 H          1 MGO       0.068516
     16 O5          15.3290    16.3260    32.9100 O.3        1 MGO      -0.427383
     17 C6          17.3820    15.7590    31.6880 C.3        1 MGO       0.141081
     18 H61         18.3570    16.2310    31.5510 H          1 MGO       0.057384
     19 H62         16.7250    16.1020    30.8840 H          1 MGO       0.057384
     20 O6          17.5460    14.3380    31.5990 O.3        1 MGO      -0.593555
     21 HO6         18.4280    14.1180    31.9240 H          1 MGO       0.422027
     22 C1          14.7550    22.2520    34.0440 C.3        2 MGO       0.304529
     23 H1          14.3150    23.2550    33.8790 H          2 MGO       0.090782
     24 O1          16.1690    22.3450    34.4320 O.3        2 MGO      -0.453070
     25 C2          13.9940    21.5690    35.1750 C.3        2 MGO       0.092199
     26 H2          12.9300    21.5120    34.9280 H          2 MGO       0.102926
     27 O2          14.1770    22.3200    36.3860 O.3        2 MGO      -0.586639
     28 HO2         14.9590    22.8850    36.3030 H          2 MGO       0.425065
     29 C3          14.5540    20.1830    35.4250 C.3        2 MGO       0.093211
     30 H3          15.5810    20.2700    35.7910 H          2 MGO       0.064468
     31 O3          13.7170    19.5680    36.4190 O.3        2 MGO      -0.592567
     32 HO3         13.4760    20.2670    37.0440 H          2 MGO       0.421017
     33 C4          14.5300    19.3430    34.1560 C.3        2 MGO       0.127621
     34 H4          13.4940    19.1010    33.9060 H          2 MGO       0.080661
     35 C5          15.2050    20.0700    32.9780 C.3        2 MGO       0.104343
     36 H5          16.2610    20.1890    33.2300 H          2 MGO       0.068516
     37 O5          14.6170    21.4280    32.8300 O.3        2 MGO      -0.427383
     38 C6          15.1740    19.3690    31.6120 C.3        2 MGO       0.141081
     39 H61         16.0720    18.7610    31.4890 H          2 MGO       0.057384
     40 H62         15.1570    20.1110    30.8100 H          2 MGO       0.057384
     41 O6          14.0270    18.5170    31.5000 O.3        2 MGO      -0.593555
     42 HO6         14.2720    17.6410    31.8280 H          2 MGO       0.422027
     43 C1          19.4420    24.8860    34.0580 C.3        3 MGO       0.304529
     44 H1          20.0920    25.7690    33.9070 H          3 MGO       0.090782
     45 O1          20.2210    23.7070    34.4580 O.3        3 MGO      -0.453070
     46 C2          18.4490    25.2000    35.1720 C.3        3 MGO       0.092199
     47 H2          17.8710    26.0930    34.9170 H          3 MGO       0.102926
     48 O2          19.1680    25.4160    36.3970 O.3        3 MGO      -0.586639
     49 HO2         20.0500    25.0210    36.3290 H          3 MGO       0.425065
     50 C3          17.5240    24.0220    35.4020 C.3        3 MGO       0.093211
     51 H3          18.1060    23.1750    35.7770 H          3 MGO       0.064468
     52 O3          16.5560    24.4370    36.3810 O.3        3 MGO      -0.592567
     53 HO3         17.0280    24.9930    37.0150 H          3 MGO       0.421017
     54 C4          16.8070    23.6250    34.1200 C.3        3 MGO       0.127621
     55 H4          16.0850    24.4030    33.8570 H          3 MGO       0.080661
     56 C5          17.7960    23.4070    32.9590 C.3        3 MGO       0.104343
     57 H5          18.4220    22.5520    33.2200 H          3 MGO       0.068516
     58 O5          18.6800    24.5960    32.8290 O.3        3 MGO      -0.427383
     59 C6          17.1990    23.0870    31.5810 C.3        3 MGO       0.141081
     60 H61         17.1240    22.0050    31.4550 H          3 MGO       0.057384
     61 H62         17.8470    23.4740    30.7920 H          3 MGO       0.057384
     62 O6          15.8890    23.6540    31.4470 O.3        3 MGO      -0.593555
     63 HO6         15.2490    23.0030    31.7620 H          3 MGO       0.422027
     64 C1          24.0640    22.1450    34.1490 C.3        4 MGO       0.304529
     65 H1          25.1570    22.0230    34.0170 H          4 MGO       0.090782
     66 O1          23.4260    20.8800    34.5340 O.3        4 MGO      -0.453070
     67 C2          23.8200    23.1600    35.2610 C.3        4 MGO       0.092199
     68 H2          24.3090    24.1070    35.0170 H          4 MGO       0.102926
     69 O2          24.3440    22.6420    36.4940 O.3        4 MGO      -0.586639
     70 HO2         24.4440    21.6790    36.4260 H          4 MGO       0.425065
     71 C3          22.3340    23.3700    35.4660 C.3        4 MGO       0.093211
     72 H3          21.8850    22.4420    35.8300 H          4 MGO       0.064468
     73 O3          22.1910    24.4130    36.4440 O.3        4 MGO      -0.592567
     74 HO3         22.8970    24.2810    37.0910 H          4 MGO       0.421017
     75 C4          21.6560    23.7950    34.1710 C.3        4 MGO       0.127621
     76 H4          21.9710    24.8100    33.9170 H          4 MGO       0.080661
     77 C5          21.9810    22.8340    33.0150 C.3        4 MGO       0.104343
     78 H5          21.5500    21.8630    33.2650 H          4 MGO       0.068516
     79 O5          23.4540    22.6630    32.9100 O.3        4 MGO      -0.427383
     80 C6          21.4310    23.1930    31.6270 C.3        4 MGO       0.141081
     81 H61         20.4580    22.7180    31.4810 H          4 MGO       0.057384
     82 H62         22.1040    22.8290    30.8480 H          4 MGO       0.057384
     83 O6          21.2690    24.6110    31.4930 O.3        4 MGO      -0.593555
     84 HO6         20.3790    24.8400    31.7930 H          4 MGO       0.422027
     85 C1          24.0020    16.7710    34.2240 C.3        5 MGO       0.304529
     86 H1          24.4440    15.7640    34.0980 H          5 MGO       0.090782
     87 O1          22.5800    16.6900    34.5840 O.3        5 MGO      -0.453070
     88 C2          24.7380    17.4860    35.3520 C.3        5 MGO       0.092199
     89 H2          25.8060    17.5370    35.1270 H          5 MGO       0.102926
     90 O2          24.5280    16.7700    36.5800 O.3        5 MGO      -0.586639
     91 HO2         23.7480    16.2030    36.4950 H          5 MGO       0.425065
     92 C3          24.1740    18.8780    35.5500 C.3        5 MGO       0.093211
     93 H3          23.1380    18.8020    35.8960 H          5 MGO       0.064468
     94 O3          24.9880    19.5210    36.5450 O.3        5 MGO      -0.592567
     95 HO3         25.2150    18.8420    37.1940 H          5 MGO       0.421017
     96 C4          24.2260    19.6830    34.2580 C.3        5 MGO       0.127621
     97 H4          25.2670    19.9170    34.0240 H          5 MGO       0.080661
     98 C5          23.5760    18.9230    33.0870 C.3        5 MGO       0.104343
     99 H5          22.5150    18.8090    33.3190 H          5 MGO       0.068516
    100 O5          24.1670    17.5610    32.9900 O.3        5 MGO      -0.427383
    101 C6          23.6380    19.5830    31.7030 C.3        5 MGO       0.141081
    102 H61         22.7420    20.1880    31.5430 H          5 MGO       0.057384
    103 H62         23.6720    18.8190    30.9220 H          5 MGO       0.057384
    104 O6          24.7870    20.4330    31.5920 O.3        5 MGO      -0.593555
    105 HO6         24.5350    21.3160    31.8890 H          5 MGO       0.422027
    106 C1          19.3150    14.1380    34.2100 C.3        6 MGO       0.304529
    107 H1          18.6670    13.2500    34.0690 H          6 MGO       0.090782
    108 O1          18.5280    15.3260    34.5590 O.3        6 MGO      -0.453070
    109 C2          20.2830    13.8560    35.3540 C.3        6 MGO       0.092199
    110 H2          20.8660    12.9560    35.1370 H          6 MGO       0.102926
    111 O2          19.5370    13.6740    36.5680 O.3        6 MGO      -0.586639
    112 HO2         18.6560    14.0670    36.4700 H          6 MGO       0.425065
    113 C3          21.2030    15.0390    35.5710 C.3        6 MGO       0.093211
    114 H3          20.6130    15.8960    35.9090 H          6 MGO       0.064468
    115 O3          22.1490    14.6530    36.5810 O.3        6 MGO      -0.592567
    116 HO3         21.6630    14.1150    37.2210 H          6 MGO       0.421017
    117 C4          21.9470    15.4000    34.2940 C.3        6 MGO       0.127621
    118 H4          22.6750    14.6150    34.0700 H          6 MGO       0.080661
    119 C5          20.9860    15.5850    33.1060 C.3        6 MGO       0.104343
    120 H5          20.3530    16.4470    33.3280 H          6 MGO       0.068516
    121 O5          20.1040    14.3920    32.9900 O.3        6 MGO      -0.427383
    122 C6          21.6130    15.8670    31.7330 C.3        6 MGO       0.141081
    123 H61         21.6910    16.9450    31.5780 H          6 MGO       0.057384
    124 H62         20.9820    15.4560    30.9400 H          6 MGO       0.057384
    125 O6          22.9250    15.2950    31.6440 O.3        6 MGO      -0.593555
    126 HO6         23.5590    15.9560    31.9540 H          6 MGO       0.422027
@<TRIPOS>BOND
     1    17    20 1   
     2    14    16 1   
     3    14    17 1   
     4    12    14 1   
     5    12   108 1   
     6     8    10 1   
     7     8    12 1   
     8     4     6 1   
     9     4     8 1   
    10     3    33 1   
    11     1     3 1   
    12     1     4 1   
    13     1    16 1   
    14    38    41 1   
    15    35    37 1   
    16    35    38 1   
    17    33    35 1   
    18    29    31 1   
    19    29    33 1   
    20    25    27 1   
    21    25    29 1   
    22    24    54 1   
    23    22    24 1   
    24    22    25 1   
    25    22    37 1   
    26    59    62 1   
    27    56    58 1   
    28    56    59 1   
    29    54    56 1   
    30    50    52 1   
    31    50    54 1   
    32    46    48 1   
    33    46    50 1   
    34    45    75 1   
    35    43    45 1   
    36    43    46 1   
    37    43    58 1   
    38    80    83 1   
    39    77    79 1   
    40    77    80 1   
    41    75    77 1   
    42    71    73 1   
    43    71    75 1   
    44    67    69 1   
    45    67    71 1   
    46    66    96 1   
    47    64    66 1   
    48    64    67 1   
    49    64    79 1   
    50   101   104 1   
    51    98   100 1   
    52    98   101 1   
    53    96    98 1   
    54    92    94 1   
    55    92    96 1   
    56    88    90 1   
    57    88    92 1   
    58    87   117 1   
    59    85    87 1   
    60    85    88 1   
    61    85   100 1   
    62   122   125 1   
    63   119   121 1   
    64   119   122 1   
    65   117   119 1   
    66   113   115 1   
    67   113   117 1   
    68   109   111 1   
    69   109   113 1   
    70   106   108 1   
    71   106   109 1   
    72   106   121 1   
    73    20    21 1   
    74    17    18 1   
    75    17    19 1   
    76    14    15 1   
    77    12    13 1   
    78    10    11 1   
    79     8     9 1   
    80     6     7 1   
    81     4     5 1   
    82     1     2 1   
    83    41    42 1   
    84    38    39 1   
    85    38    40 1   
    86    35    36 1   
    87    33    34 1   
    88    31    32 1   
    89    29    30 1   
    90    27    28 1   
    91    25    26 1   
    92    22    23 1   
    93    62    63 1   
    94    59    60 1   
    95    59    61 1   
    96    56    57 1   
    97    54    55 1   
    98    52    53 1   
    99    50    51 1   
   100    48    49 1   
   101    46    47 1   
   102    43    44 1   
   103    83    84 1   
   104    80    81 1   
   105    80    82 1   
   106    77    78 1   
   107    75    76 1   
   108    73    74 1   
   109    71    72 1   
   110    69    70 1   
   111    67    68 1   
   112    64    65 1   
   113   104   105 1   
   114   101   102 1   
   115   101   103 1   
   116    98    99 1   
   117    96    97 1   
   118    94    95 1   
   119    92    93 1   
   120    90    91 1   
   121    88    89 1   
   122    85    86 1   
   123   125   126 1   
   124   122   123 1   
   125   122   124 1   
   126   119   120 1   
   127   117   118 1   
   128   115   116 1   
   129   113   114 1   
   130   111   112 1   
   131   109   110 1   
   132   106   107 1   
@<TRIPOS>SUBSTRUCTURE
     1 MGO         1 TEMP              0 ****  ****    0 ROOT
