@<TRIPOS>MOLECULE
Cpptraj
   13    12     1     0     0
SMALL
No Charge or Current Charge


@<TRIPOS>ATOM
      1 C1          19.5320    19.7910    37.1810 C.2        1 BUT       0.907309
      2 O1          19.5440    21.0110    37.2190 O.co2      1 BUT      -0.855574
      3 O2          19.5250    19.1480    38.2170 O.co2      1 BUT      -0.855574
      4 C2          19.5240    19.0350    35.8520 C.3        1 BUT      -0.192462
      5 H1          18.6370    18.3940    35.8060 H          1 BUT       0.018694
      6 H2          20.3970    18.3750    35.8060 H          1 BUT       0.018694
      7 C3          19.5330    19.9610    34.6150 C.3        1 BUT      -0.066421
      8 H3          18.6560    20.6130    34.6320 H          1 BUT       0.042686
      9 H4          20.4240    20.5950    34.6320 H          1 BUT       0.042686
     10 C4          19.5250    19.1480    33.3080 C.3        1 BUT      -0.087128
     11 H5          18.6320    18.5220    33.2470 H          1 BUT       0.009030
     12 H6          19.5320    19.8180    32.4450 H          1 BUT       0.009030
     13 H7          20.4050    18.5040    33.2470 H          1 BUT       0.009030
@<TRIPOS>BOND
     1     7    10 1   
     2     4     7 1   
     3     1     2 1   
     4     1     3 1   
     5     1     4 1   
     6    10    11 1   
     7    10    12 1   
     8    10    13 1   
     9     7     8 1   
    10     7     9 1   
    11     4     5 1   
    12     4     6 1   
@<TRIPOS>SUBSTRUCTURE
     1 BUT         1 TEMP              0 ****  ****    0 ROOT
