@<TRIPOS>MOLECULE
Cpptraj generated mol2 file.
  126   132     6     0     0
SMALL
USER_CHARGES


@<TRIPOS>ATOM
      1 C1         21.6300   14.6990   33.8260 c3         1 MGO      0.304529
      2 H1         22.5850   14.1680   34.0090 h2         1 MGO      0.090782
      3 O1         21.8600   16.0840   33.3950 os         1 MGO     -0.453070
      4 C2         20.8760   13.9740   32.7160 c3         1 MGO      0.092199
      5 H2         20.7140   12.9290   32.9960 h1         1 MGO      0.102926
      6 O2         21.6430   14.0430   31.5030 oh         1 MGO     -0.586639
      7 HO2        22.2820   14.7700   31.5640 ho         1 MGO      0.425065
      8 C3         19.5520   14.6580   32.4430 c3         1 MGO      0.093211
      9 H3         19.7390   15.6590   32.0460 h1         1 MGO      0.064468
     10 O3         18.8610   13.8550   31.4730 oh         1 MGO     -0.592567
     11 HO3        19.5320   13.5260   30.8590 ho         1 MGO      0.421017
     12 C4         18.7120   14.7560   33.7080 c3         1 MGO      0.127621
     13 H4         18.3700   13.7560   33.9900 h1         1 MGO      0.080661
     14 C5         19.4990   15.3940   34.8670 c3         1 MGO      0.104343
     15 H5         19.7230   16.4250   34.5840 h1         1 MGO      0.068516
     16 O5         20.7940   14.6800   35.0410 os         1 MGO     -0.427383
     17 C6         18.7990   15.4750   36.2310 c3         1 MGO      0.141081
     18 H61        18.2810   16.4320   36.3230 h1         1 MGO      0.057384
     19 H62        19.5340   15.4100   37.0370 h1         1 MGO      0.057384
     20 O6         17.8380   14.4210   36.3750 oh         1 MGO     -0.593555
     21 HO6        16.9910   14.7400   36.0360 ho         1 MGO      0.422027
     22 C1         24.7080   19.1030   33.6780 c3         2 MGO      0.304529
     23 H1         25.6510   19.6690   33.8130 h2         2 MGO      0.090782
     24 O1         23.6120   19.9810   33.2500 os         2 MGO     -0.453070
     25 C2         24.9260   18.0500   32.5970 c3         2 MGO      0.092199
     26 H2         25.7590   17.3970   32.8740 h1         2 MGO      0.102926
     27 O2         25.2120   18.7070   31.3510 oh         2 MGO     -0.586639
     28 HO2        24.9060   19.6250   31.3900 ho         2 MGO      0.425065
     29 C3         23.6630   17.2390   32.3900 c3         2 MGO      0.093211
     30 H3         22.8780   17.8880   31.9940 h1         2 MGO      0.064468
     31 O3         23.9830   16.2040   31.4440 oh         2 MGO     -0.592567
     32 HO3        24.5840   16.6000   30.7970 ho         2 MGO      0.421017
     33 C4         23.1970   16.6040   33.6930 c3         2 MGO      0.127621
     34 H4         23.8990   15.8170   33.9800 h1         2 MGO      0.080661
     35 C5         23.0750   17.6450   34.8210 c3         2 MGO      0.104343
     36 H5         22.2850   18.3440   34.5370 h1         2 MGO      0.068516
     37 O5         24.3450   18.4120   34.9290 os         2 MGO     -0.427383
     38 C6         22.6960   17.1250   36.2160 c3         2 MGO      0.141081
     39 H61        21.6120   17.1600   36.3400 h1         2 MGO      0.057384
     40 H62        23.1440   17.7560   36.9870 h1         2 MGO      0.057384
     41 O6         23.1320   15.7710   36.3920 oh         2 MGO     -0.593555
     42 HO6        22.4220   15.1870   36.0950 ho         2 MGO      0.422027
     43 C1         22.4330   23.9670   33.4320 c3         3 MGO      0.304529
     44 H1         22.4190   25.0690   33.5300 h2         3 MGO      0.090782
     45 O1         21.1120   23.4440   33.0620 os         3 MGO     -0.453070
     46 C2         23.4200   23.5900   32.3330 c3         3 MGO      0.092199
     47 H2         24.4100   23.9910   32.5660 h1         3 MGO      0.102926
     48 O2         22.9580   24.1240   31.0820 oh         3 MGO     -0.586639
     49 HO2        22.0110   24.3200   31.1430 ho         3 MGO      0.425065
     50 C3         23.4850   22.0840   32.1760 c3         3 MGO      0.093211
     51 H3         22.5180   21.7170   31.8210 h1         3 MGO      0.064468
     52 O3         24.5110   21.8100   31.2070 oh         3 MGO     -0.592567
     53 HO3        24.4490   22.5050   30.5380 ho         3 MGO      0.421017
     54 C4         23.8400   21.4080   33.4920 c3         3 MGO      0.127621
     55 H4         24.8810   21.6310   33.7410 h1         3 MGO      0.080661
     56 C5         22.9130   21.8620   34.6340 c3         3 MGO      0.104343
     57 H5         21.9050   21.5200   34.3920 h1         3 MGO      0.068516
     58 O5         22.8870   23.3480   34.6920 os         3 MGO     -0.427383
     59 C6         23.2150   21.3230   36.0400 c3         3 MGO      0.141081
     60 H61        22.6460   20.4070   36.2120 h1         3 MGO      0.057384
     61 H62        22.9160   22.0530   36.7950 h1         3 MGO      0.057384
     62 O6         24.6110   21.0270   36.1840 oh         3 MGO     -0.593555
     63 HO6        24.7510   20.1110   35.9130 ho         3 MGO      0.422027
     64 C1         17.0790   24.4270   33.3330 c3         4 MGO      0.304529
     65 H1         16.1200   24.9700   33.4410 h2         4 MGO      0.090782
     66 O1         16.8590   23.0100   33.0180 os         4 MGO     -0.453070
     67 C2         17.8650   25.0540   32.1870 c3         4 MGO      0.092199
     68 H2         18.0200   26.1200   32.3790 h1         4 MGO      0.102926
     69 O2         17.1340   24.8780   30.9630 oh         4 MGO     -0.586639
     70 HO2        16.4930   24.1590   31.0690 ho         4 MGO      0.425065
     71 C3         19.1950   24.3510   32.0130 c3         4 MGO      0.093211
     72 H3         19.0190   23.3180   31.6990 h1         4 MGO      0.064468
     73 O3         19.9160   25.0660   30.9970 oh         4 MGO     -0.592567
     74 HO3        19.2630   25.3380   30.3370 ho         4 MGO      0.421017
     75 C4         19.9980   24.3640   33.3060 c3         4 MGO      0.127621
     76 H4         20.3330   25.3840   33.5100 h1         4 MGO      0.080661
     77 C5         19.1770   23.8290   34.4930 c3         4 MGO      0.104343
     78 H5         18.9610   22.7780   34.2940 h1         4 MGO      0.068516
     79 O5         17.8790   24.5530   34.5660 os         4 MGO     -0.427383
     80 C6         19.8370   23.8690   35.8780 c3         4 MGO      0.141081
     81 H61        20.3520   22.9240   36.0690 h1         4 MGO      0.057384
     82 H62        19.0800   24.0030   36.6530 h1         4 MGO      0.057384
     83 O6         20.7950   24.9320   35.9580 oh         4 MGO     -0.593555
     84 HO6        21.6500   24.5850   35.6720 ho         4 MGO      0.422027
     85 C1         14.0000   20.0240   33.4820 c3         5 MGO      0.304529
     86 H1         13.0530   19.4700   33.6390 h2         5 MGO      0.090782
     87 O1         15.1080   19.1140   33.1640 os         5 MGO     -0.453070
     88 C2         13.8150   20.9770   32.3070 c3         5 MGO      0.092199
     89 H2         12.9760   21.6520   32.5010 h1         5 MGO      0.102926
     90 O2         13.5640   20.2140   31.1160 oh         5 MGO     -0.586639
     91 HO2        13.8690   19.3040   31.2440 ho         5 MGO      0.425065
     92 C3         15.0830   21.7700   32.0660 c3         5 MGO      0.093211
     93 H3         15.8800   21.0890   31.7510 h1         5 MGO      0.064468
     94 O3         14.7930   22.7170   31.0250 oh         5 MGO     -0.592567
     95 HO3        14.2110   22.2660   30.3980 ho         5 MGO      0.421017
     96 C4         15.5130   22.5160   33.3220 c3         5 MGO      0.127621
     97 H4         14.8040   23.3240   33.5190 h1         5 MGO      0.080661
     98 C5         15.6020   21.5790   34.5400 c3         5 MGO      0.104343
     99 H5         16.3980   20.8580   34.3410 h1         5 MGO      0.068516
    100 O5         14.3290   20.8220   34.6770 os         5 MGO     -0.427383
    101 C6         15.9400   22.2190   35.8940 c3         5 MGO      0.141081
    102 H61        17.0210   22.1960   36.0520 h1         5 MGO      0.057384
    103 H62        15.4690   21.6570   36.7040 h1         5 MGO      0.057384
    104 O6         15.5010   23.5820   35.9390 oh         5 MGO     -0.593555
    105 HO6        16.2200   24.1380   35.6120 ho         5 MGO      0.422027
    106 C1         16.2760   15.1600   33.7280 c3         6 MGO      0.304529
    107 H1         16.2850   14.0690   33.9230 h2         6 MGO      0.090782
    108 O1         17.6070   15.6500   33.3510 os         6 MGO     -0.453070
    109 C2         15.3210   15.4380   32.5720 c3         6 MGO      0.092199
    110 H2         14.3240   15.0570   32.8100 h1         6 MGO      0.102926
    111 O2         15.8190   14.7970   31.3860 oh         6 MGO     -0.586639
    112 HO2        16.7640   14.6090   31.4920 ho         6 MGO      0.425065
    113 C3         15.2620   16.9240   32.2820 c3         6 MGO      0.093211
    114 H3         16.2400   17.2600   31.9250 h1         6 MGO      0.064468
    115 O3         14.2660   17.1110   31.2640 oh         6 MGO     -0.592567
    116 HO3        14.3460   16.3600   30.6600 ho         6 MGO      0.421017
    117 C4         14.8710   17.7120   33.5230 c3         6 MGO      0.127621
    118 H4         13.8220   17.5100   33.7600 h1         6 MGO      0.080661
    119 C5         15.7630   17.3610   34.7270 c3         6 MGO      0.104343
    120 H5         16.7790   17.6820   34.4860 h1         6 MGO      0.068516
    121 O5         15.7860   15.8850   34.9150 os         6 MGO     -0.427383
    122 C6         15.4220   18.0210   36.0710 c3         6 MGO      0.141081
    123 H61        15.9870   18.9500   36.1790 h1         6 MGO      0.057384
    124 H62        15.6970   17.3600   36.8960 h1         6 MGO      0.057384
    125 O6         14.0220   18.3260   36.1480 oh         6 MGO     -0.593555
    126 HO6        13.8910   19.2150   35.7950 ho         6 MGO      0.422027
@<TRIPOS>BOND
    1    17    20 1
    2    14    16 1
    3    14    17 1
    4    12    14 1
    5    12   108 1
    6     8    10 1
    7     8    12 1
    8     4     6 1
    9     4     8 1
   10     3    33 1
   11     1     3 1
   12     1     4 1
   13     1    16 1
   14    38    41 1
   15    35    37 1
   16    35    38 1
   17    33    35 1
   18    29    31 1
   19    29    33 1
   20    25    27 1
   21    25    29 1
   22    24    54 1
   23    22    24 1
   24    22    25 1
   25    22    37 1
   26    59    62 1
   27    56    58 1
   28    56    59 1
   29    54    56 1
   30    50    52 1
   31    50    54 1
   32    46    48 1
   33    46    50 1
   34    45    75 1
   35    43    45 1
   36    43    46 1
   37    43    58 1
   38    80    83 1
   39    77    79 1
   40    77    80 1
   41    75    77 1
   42    71    73 1
   43    71    75 1
   44    67    69 1
   45    67    71 1
   46    66    96 1
   47    64    66 1
   48    64    67 1
   49    64    79 1
   50   101   104 1
   51    98   100 1
   52    98   101 1
   53    96    98 1
   54    92    94 1
   55    92    96 1
   56    88    90 1
   57    88    92 1
   58    87   117 1
   59    85    87 1
   60    85    88 1
   61    85   100 1
   62   122   125 1
   63   119   121 1
   64   119   122 1
   65   117   119 1
   66   113   115 1
   67   113   117 1
   68   109   111 1
   69   109   113 1
   70   106   108 1
   71   106   109 1
   72   106   121 1
   73    20    21 1
   74    17    18 1
   75    17    19 1
   76    14    15 1
   77    12    13 1
   78    10    11 1
   79     8     9 1
   80     6     7 1
   81     4     5 1
   82     1     2 1
   83    41    42 1
   84    38    39 1
   85    38    40 1
   86    35    36 1
   87    33    34 1
   88    31    32 1
   89    29    30 1
   90    27    28 1
   91    25    26 1
   92    22    23 1
   93    62    63 1
   94    59    60 1
   95    59    61 1
   96    56    57 1
   97    54    55 1
   98    52    53 1
   99    50    51 1
  100    48    49 1
  101    46    47 1
  102    43    44 1
  103    83    84 1
  104    80    81 1
  105    80    82 1
  106    77    78 1
  107    75    76 1
  108    73    74 1
  109    71    72 1
  110    69    70 1
  111    67    68 1
  112    64    65 1
  113   104   105 1
  114   101   102 1
  115   101   103 1
  116    98    99 1
  117    96    97 1
  118    94    95 1
  119    92    93 1
  120    90    91 1
  121    88    89 1
  122    85    86 1
  123   125   126 1
  124   122   123 1
  125   122   124 1
  126   119   120 1
  127   117   118 1
  128   115   116 1
  129   113   114 1
  130   111   112 1
  131   109   110 1
  132   106   107 1
@<TRIPOS>SUBSTRUCTURE
      1 MGO               1 ****               0 ****  **** 
      2 MGO              22 ****               0 ****  **** 
      3 MGO              43 ****               0 ****  **** 
      4 MGO              64 ****               0 ****  **** 
      5 MGO              85 ****               0 ****  **** 
      6 MGO             106 ****               0 ****  **** 
