@<TRIPOS>MOLECULE
Cpptraj
   23    22     1     0     0
SMALL
No Charge or Current Charge


@<TRIPOS>ATOM
      1 N1          19.4520    19.3050    39.5050 N.4        1 HAM      -0.839835
      2 H1          19.1210    18.3290    39.5760 H          1 HAM       0.461671
      3 H2          19.1000    19.8050    40.3380 H          1 HAM       0.461671
      4 HN11        20.4820    19.2860    39.5760 H          1 HAM       0.461671
      5 C1          18.9900    19.9620    38.2240 C.3        1 HAM       0.098772
      6 H3          19.3480    20.9950    38.2400 H          1 HAM       0.113668
      7 H4          17.8970    19.9740    38.2400 H          1 HAM       0.113668
      8 C2          19.4880    19.2530    36.9510 C.3        1 HAM      -0.111431
      9 H5          20.5810    19.2340    36.9460 H          1 HAM       0.069681
     10 H6          19.1370    18.2180    36.9460 H          1 HAM       0.069681
     11 C3          18.9790    19.9780    35.6870 C.3        1 HAM      -0.079422
     12 H7          19.3290    21.0140    35.6960 H          1 HAM       0.057684
     13 H8          17.8860    19.9990    35.6960 H          1 HAM       0.057684
     14 C4          19.4710    19.2770    34.4030 C.3        1 HAM      -0.080422
     15 H9          20.5640    19.2570    34.3940 H          1 HAM       0.049686
     16 H10         19.1210    18.2430    34.3940 H          1 HAM       0.049686
     17 C5          18.9610    20.0030    33.1390 C.3        1 HAM      -0.079422
     18 H11         19.3110    21.0390    33.1420 H          1 HAM       0.045687
     19 H12         17.8680    20.0240    33.1420 H          1 HAM       0.045687
     20 C6          19.4520    19.3050    31.8570 C.3        1 HAM      -0.097127
     21 H13         20.5430    19.2950    31.8180 H          1 HAM       0.043688
     22 H14         19.0810    19.8320    30.9750 H          1 HAM       0.043688
     23 H15         19.0920    18.2750    31.8180 H          1 HAM       0.043686
@<TRIPOS>BOND
     1    17    20 1   
     2    14    17 1   
     3    11    14 1   
     4     8    11 1   
     5     5     8 1   
     6     1     5 1   
     7    20    21 1   
     8    20    22 1   
     9    20    23 1   
    10    17    18 1   
    11    17    19 1   
    12    14    15 1   
    13    14    16 1   
    14    11    12 1   
    15    11    13 1   
    16     8     9 1   
    17     8    10 1   
    18     5     6 1   
    19     5     7 1   
    20     1     2 1   
    21     1     3 1   
    22     1     4 1   
@<TRIPOS>SUBSTRUCTURE
     1 HAM         1 TEMP              0 ****  ****    0 ROOT
