@<TRIPOS>MOLECULE
Cpptraj generated mol2 file.
  126   132     6     0     0
SMALL
USER_CHARGES


@<TRIPOS>ATOM
      1 C1         16.4980   14.9720   34.4140 c3         1 MGO      0.304529
      2 H1         15.4810   14.5570   34.2760 h2         1 MGO      0.090782
      3 O1         16.4520   16.3920   34.7830 os         1 MGO     -0.453070
      4 C2         17.1850   14.2100   35.5430 c3         1 MGO      0.092199
      5 H2         17.2090   13.1410   35.3110 h1         1 MGO      0.102926
      6 O2         16.4630   14.4280   36.7660 oh         1 MGO     -0.586639
      7 HO2        15.9170   15.2250   36.6820 ho         1 MGO      0.425065
      8 C3         18.5890   14.7350   35.7570 c3         1 MGO      0.093211
      9 H3         18.5380   15.7690   36.1100 h1         1 MGO      0.064468
     10 O3         19.2010   13.8970   36.7510 oh         1 MGO     -0.592567
     11 HO3        18.5100   13.6830   37.3930 ho         1 MGO      0.421017
     12 C4         19.4030   14.6700   34.4720 c3         1 MGO      0.127621
     13 H4         19.6120   13.6240   34.2320 h1         1 MGO      0.080661
     14 C5         18.6710   15.3480   33.3000 c3         1 MGO      0.104343
     15 H5         18.5840   16.4110   33.5380 h1         1 MGO      0.068516
     16 O5         17.2950   14.7940   33.1860 os         1 MGO     -0.427383
     17 C6         19.3420   15.2800   31.9200 c3         1 MGO      0.141081
     18 H61        19.9710   16.1600   31.7730 h1         1 MGO      0.057384
     19 H62        18.5840   15.2710   31.1330 h1         1 MGO      0.057384
     20 O6         20.1620   14.1090   31.8090 oh         1 MGO     -0.593555
     21 HO6        21.0490   14.3350   32.1150 ho         1 MGO      0.422027
     22 C1         13.9920   19.7270   34.4110 c3         2 MGO      0.304529
     23 H1         13.1230   20.3990   34.2680 h2         2 MGO      0.090782
     24 O1         15.1980   20.4800   34.7750 os         2 MGO     -0.453070
     25 C2         13.6730   18.7590   35.5450 c3         2 MGO      0.092199
     26 H2         12.7600   18.2030   35.3170 h1         2 MGO      0.102926
     27 O2         13.5020   19.5020   36.7630 oh         2 MGO     -0.586639
     28 HO2        13.9180   20.3720   36.6750 ho         2 MGO      0.425065
     29 C3         14.8310   17.8070   35.7660 c3         2 MGO      0.093211
     30 H3         15.7000   18.3710   36.1160 h1         2 MGO      0.064468
     31 O3         14.4100   16.8640   36.7660 oh         2 MGO     -0.592567
     32 HO3        13.8790   17.3610   37.4060 ho         2 MGO      0.421017
     33 C4         15.1820   17.0610   34.4870 c3         2 MGO      0.127621
     34 H4         14.3810   16.3560   34.2510 h1         2 MGO      0.080661
     35 C5         15.4040   18.0260   33.3070 c3         2 MGO      0.104343
     36 H5         16.2800   18.6340   33.5420 h1         2 MGO      0.068516
     37 O5         14.2360   18.9400   33.1880 os         2 MGO     -0.427383
     38 C6         15.6800   17.4010   31.9320 c3         2 MGO      0.141081
     39 H61        16.7570   17.2950   31.7860 h1         2 MGO      0.057384
     40 H62        15.2940   18.0480   31.1410 h1         2 MGO      0.057384
     41 O6         15.0760   16.1060   31.8300 oh         2 MGO     -0.593555
     42 HO6        15.7160   15.4510   32.1410 ho         2 MGO      0.422027
     43 C1         16.8560   24.2760   34.3790 c3         3 MGO      0.304529
     44 H1         17.0030   25.3630   34.2280 h2         3 MGO      0.090782
     45 O1         18.1110   23.6090   34.7480 os         3 MGO     -0.453070
     46 C2         15.8580   24.0740   35.5140 c3         3 MGO      0.092199
     47 H2         14.9190   24.5850   35.2820 h1         3 MGO      0.102926
     48 O2         16.4130   24.6030   36.7290 oh         3 MGO     -0.586639
     49 HO2        17.3760   24.6760   36.6400 ho         3 MGO      0.425065
     50 C3         15.6110   22.5970   35.7450 c3         3 MGO      0.093211
     51 H3         16.5340   22.1290   36.0970 h1         3 MGO      0.064468
     52 O3         14.5850   22.4970   36.7450 oh         3 MGO     -0.592567
     53 HO3        14.7480   23.2090   37.3780 ho         3 MGO      0.421017
     54 C4         15.1420   21.9120   34.4690 c3         3 MGO      0.127621
     55 H4         14.1310   22.2520   34.2300 h1         3 MGO      0.080661
     56 C5         16.0890   22.1950   33.2880 c3         3 MGO      0.104343
     57 H5         17.0530   21.7410   33.5270 h1         3 MGO      0.068516
     58 O5         16.2970   23.6620   33.1590 os         3 MGO     -0.427383
     59 C6         15.6880   21.6340   31.9170 c3         3 MGO      0.141081
     60 H61        16.1350   20.6480   31.7770 h1         3 MGO      0.057384
     61 H62        16.0550   22.2870   31.1220 h1         3 MGO      0.057384
     62 O6         14.2630   21.5090   31.8140 oh         3 MGO     -0.593555
     63 HO6        14.0180   20.6300   32.1310 ho         3 MGO      0.422027
     64 C1         22.2260   24.0700   34.3510 c3         4 MGO      0.304529
     65 H1         23.2420   24.4840   34.1990 h2         4 MGO      0.090782
     66 O1         22.2770   22.6520   34.7290 os         4 MGO     -0.453070
     67 C2         21.5530   24.8410   35.4810 c3         4 MGO      0.092199
     68 H2         21.5260   25.9080   35.2420 h1         4 MGO      0.102926
     69 O2         22.2870   24.6310   36.6980 oh         4 MGO     -0.586639
     70 HO2        22.8320   23.8330   36.6140 ho         4 MGO      0.425065
     71 C3         20.1510   24.3170   35.7150 c3         4 MGO      0.093211
     72 H3         20.2070   23.2860   36.0740 h1         4 MGO      0.064468
     73 O3         19.5500   25.1620   36.7090 oh         4 MGO     -0.592567
     74 HO3        20.2470   25.3800   37.3420 ho         4 MGO      0.421017
     75 C4         19.3240   24.3720   34.4380 c3         4 MGO      0.127621
     76 H4         19.1120   25.4160   34.1920 h1         4 MGO      0.080661
     77 C5         20.0420   23.6860   33.2630 c3         4 MGO      0.104343
     78 H5         20.1320   22.6260   33.5080 h1         4 MGO      0.068516
     79 O5         21.4170   24.2390   33.1300 os         4 MGO     -0.427383
     80 C6         19.3570   23.7450   31.8900 c3         4 MGO      0.141081
     81 H61        18.7250   22.8640   31.7550 h1         4 MGO      0.057384
     82 H62        20.1050   23.7480   31.0950 h1         4 MGO      0.057384
     83 O6         18.5360   24.9150   31.7780 oh         4 MGO     -0.593555
     84 HO6        17.6520   24.6900   32.0970 ho         4 MGO      0.422027
     85 C1         24.7340   19.3160   34.3540 c3         5 MGO      0.304529
     86 H1         25.6000   18.6420   34.2060 h2         5 MGO      0.090782
     87 O1         23.5300   18.5660   34.7370 os         5 MGO     -0.453070
     88 C2         25.0650   20.2910   35.4780 c3         5 MGO      0.092199
     89 H2         25.9750   20.8460   35.2350 h1         5 MGO      0.102926
     90 O2         25.2490   19.5570   36.7000 oh         5 MGO     -0.586639
     91 HO2        24.8310   18.6860   36.6210 ho         5 MGO      0.425065
     92 C3         23.9100   21.2450   35.7050 c3         5 MGO      0.093211
     93 H3         23.0440   20.6830   36.0680 h1         5 MGO      0.064468
     94 O3         24.3410   22.1940   36.6940 oh         5 MGO     -0.592567
     95 HO3        24.8780   21.7030   37.3300 ho         5 MGO      0.421017
     96 C4         23.5440   21.9820   34.4240 c3         5 MGO      0.127621
     97 H4         24.3420   22.6850   34.1750 h1         5 MGO      0.080661
     98 C5         23.3100   21.0080   33.2540 c3         5 MGO      0.104343
     99 H5         22.4360   20.4020   33.5030 h1         5 MGO      0.068516
    100 O5         24.4760   20.0940   33.1280 os         5 MGO     -0.427383
    101 C6         23.0190   21.6240   31.8780 c3         5 MGO      0.141081
    102 H61        21.9400   21.7280   31.7420 h1         5 MGO      0.057384
    103 H62        23.3960   20.9710   31.0860 h1         5 MGO      0.057384
    104 O6         23.6220   22.9180   31.7590 oh         5 MGO     -0.593555
    105 HO6        22.9850   23.5730   32.0730 ho         5 MGO      0.422027
    106 C1         21.8690   14.7670   34.3860 c3         6 MGO      0.304529
    107 H1         21.7200   13.6780   34.2440 h2         6 MGO      0.090782
    108 O1         20.6190   15.4350   34.7640 os         6 MGO     -0.453070
    109 C2         22.8800   14.9760   35.5080 c3         6 MGO      0.092199
    110 H2         23.8160   14.4630   35.2690 h1         6 MGO      0.102926
    111 O2         22.3370   14.4560   36.7330 oh         6 MGO     -0.586639
    112 HO2        21.3730   14.3820   36.6550 ho         6 MGO      0.425065
    113 C3         23.1290   16.4540   35.7260 c3         6 MGO      0.093211
    114 H3         22.2090   16.9250   36.0850 h1         6 MGO      0.064468
    115 O3         24.1660   16.5620   36.7140 oh         6 MGO     -0.592567
    116 HO3        24.0100   15.8550   37.3550 ho         6 MGO      0.421017
    117 C4         23.5830   17.1300   34.4410 c3         6 MGO      0.127621
    118 H4         24.5920   16.7890   34.1930 h1         6 MGO      0.080661
    119 C5         22.6240   16.8390   33.2730 c3         6 MGO      0.104343
    120 H5         21.6620   17.2950   33.5180 h1         6 MGO      0.068516
    121 O5         22.4150   15.3710   33.1560 os         6 MGO     -0.427383
    122 C6         23.0100   17.3910   31.8930 c3         6 MGO      0.141081
    123 H61        22.5620   18.3770   31.7510 h1         6 MGO      0.057384
    124 H62        22.6350   16.7320   31.1060 h1         6 MGO      0.057384
    125 O6         24.4340   17.5150   31.7730 oh         6 MGO     -0.593555
    126 HO6        24.6830   18.3960   32.0810 ho         6 MGO      0.422027
@<TRIPOS>BOND
    1    17    20 1
    2    14    16 1
    3    14    17 1
    4    12    14 1
    5    12   108 1
    6     8    10 1
    7     8    12 1
    8     4     6 1
    9     4     8 1
   10     3    33 1
   11     1     3 1
   12     1     4 1
   13     1    16 1
   14    38    41 1
   15    35    37 1
   16    35    38 1
   17    33    35 1
   18    29    31 1
   19    29    33 1
   20    25    27 1
   21    25    29 1
   22    24    54 1
   23    22    24 1
   24    22    25 1
   25    22    37 1
   26    59    62 1
   27    56    58 1
   28    56    59 1
   29    54    56 1
   30    50    52 1
   31    50    54 1
   32    46    48 1
   33    46    50 1
   34    45    75 1
   35    43    45 1
   36    43    46 1
   37    43    58 1
   38    80    83 1
   39    77    79 1
   40    77    80 1
   41    75    77 1
   42    71    73 1
   43    71    75 1
   44    67    69 1
   45    67    71 1
   46    66    96 1
   47    64    66 1
   48    64    67 1
   49    64    79 1
   50   101   104 1
   51    98   100 1
   52    98   101 1
   53    96    98 1
   54    92    94 1
   55    92    96 1
   56    88    90 1
   57    88    92 1
   58    87   117 1
   59    85    87 1
   60    85    88 1
   61    85   100 1
   62   122   125 1
   63   119   121 1
   64   119   122 1
   65   117   119 1
   66   113   115 1
   67   113   117 1
   68   109   111 1
   69   109   113 1
   70   106   108 1
   71   106   109 1
   72   106   121 1
   73    20    21 1
   74    17    18 1
   75    17    19 1
   76    14    15 1
   77    12    13 1
   78    10    11 1
   79     8     9 1
   80     6     7 1
   81     4     5 1
   82     1     2 1
   83    41    42 1
   84    38    39 1
   85    38    40 1
   86    35    36 1
   87    33    34 1
   88    31    32 1
   89    29    30 1
   90    27    28 1
   91    25    26 1
   92    22    23 1
   93    62    63 1
   94    59    60 1
   95    59    61 1
   96    56    57 1
   97    54    55 1
   98    52    53 1
   99    50    51 1
  100    48    49 1
  101    46    47 1
  102    43    44 1
  103    83    84 1
  104    80    81 1
  105    80    82 1
  106    77    78 1
  107    75    76 1
  108    73    74 1
  109    71    72 1
  110    69    70 1
  111    67    68 1
  112    64    65 1
  113   104   105 1
  114   101   102 1
  115   101   103 1
  116    98    99 1
  117    96    97 1
  118    94    95 1
  119    92    93 1
  120    90    91 1
  121    88    89 1
  122    85    86 1
  123   125   126 1
  124   122   123 1
  125   122   124 1
  126   119   120 1
  127   117   118 1
  128   115   116 1
  129   113   114 1
  130   111   112 1
  131   109   110 1
  132   106   107 1
@<TRIPOS>SUBSTRUCTURE
      1 MGO               1 ****               0 ****  **** 
      2 MGO              22 ****               0 ****  **** 
      3 MGO              43 ****               0 ****  **** 
      4 MGO              64 ****               0 ****  **** 
      5 MGO              85 ****               0 ****  **** 
      6 MGO             106 ****               0 ****  **** 
