@<TRIPOS>MOLECULE
Cpptraj generated mol2 file.
  147   154     7     0     0
SMALL
USER_CHARGES


@<TRIPOS>ATOM
      1 C1         23.0300   14.5850   33.6420 c3         1 MGO      0.304529
      2 H1         24.0070   14.0800   33.7720 h2         1 MGO      0.090782
      3 O1         23.1990   16.0120   33.3400 os         1 MGO     -0.453070
      4 C2         22.3030   13.9190   32.4780 c3         1 MGO      0.092199
      5 H2         22.2190   12.8450   32.6630 h1         1 MGO      0.102926
      6 O2         23.0300   14.1440   31.2590 oh         1 MGO     -0.586639
      7 HO2        23.6540   14.8800   31.3750 ho         1 MGO      0.425065
      8 C3         20.9260   14.5230   32.2890 c3         1 MGO      0.093211
      9 H3         21.0240   15.5720   31.9940 h1         1 MGO      0.064468
     10 O3         20.2810   13.7610   31.2560 oh         1 MGO     -0.592567
     11 HO3        20.9660   13.5520   30.6060 ho         1 MGO      0.421017
     12 C4         20.1230   14.4120   33.5750 c3         1 MGO      0.127621
     13 H4         19.9340   13.3570   33.7880 h1         1 MGO      0.080661
     14 C5         20.8730   15.0480   34.7570 c3         1 MGO      0.104343
     15 H5         21.0090   16.1090   34.5340 h1         1 MGO      0.068516
     16 O5         22.2190   14.4250   34.8650 os         1 MGO     -0.427383
     17 C6         20.1820   14.9840   36.1270 c3         1 MGO      0.141081
     18 H61        19.5460   15.8630   36.2590 h1         1 MGO      0.057384
     19 H62        20.9300   14.9850   36.9240 h1         1 MGO      0.057384
     20 O6         19.3680   13.8100   36.2320 oh         1 MGO     -0.593555
     21 HO6        18.4830   14.0270   35.9110 ho         1 MGO      0.422027
     22 C1         26.2360   18.8870   33.6420 c3         2 MGO      0.304529
     23 H1         27.2410   19.3360   33.7700 h2         2 MGO      0.090782
     24 O1         25.2250   19.9090   33.3390 os         2 MGO     -0.453070
     25 C2         26.3030   17.9030   32.4770 c3         2 MGO      0.092199
     26 H2         27.0910   17.1680   32.6620 h1         2 MGO      0.102926
     27 O2         26.5790   18.6120   31.2580 oh         2 MGO     -0.586639
     28 HO2        26.3940   19.5590   31.3740 ho         2 MGO      0.425065
     29 C3         24.9720   17.2040   32.2900 c3         2 MGO      0.093211
     30 H3         24.2120   17.9330   31.9940 h1         2 MGO      0.064468
     31 O3         25.1660   16.2240   31.2570 oh         2 MGO     -0.592567
     32 HO3        25.7570   16.6290   30.6050 ho         2 MGO      0.421017
     33 C4         24.5580   16.5070   33.5750 c3         2 MGO      0.127621
     34 H4         25.2660   15.7010   33.7880 h1         2 MGO      0.080661
     35 C5         24.5300   17.4890   34.7570 c3         2 MGO      0.104343
     36 H5         23.7860   18.2570   34.5340 h1         2 MGO      0.068516
     37 O5         25.8560   18.1540   34.8650 os         2 MGO     -0.427383
     38 C6         24.1490   16.9110   36.1270 c3         2 MGO      0.141081
     39 H61        23.0660   16.9610   36.2600 h1         2 MGO      0.057384
     40 H62        24.6150   17.4950   36.9240 h1         2 MGO      0.057384
     41 O6         24.5600   15.5410   36.2330 oh         2 MGO     -0.593555
     42 HO6        23.8380   14.9850   35.9110 ho         2 MGO      0.422027
     43 C1         24.8710   24.0770   33.6410 c3         3 MGO      0.304529
     44 H1         25.1460   25.1420   33.7700 h2         3 MGO      0.090782
     45 O1         23.4420   23.9230   33.3390 os         3 MGO     -0.453070
     46 C2         25.6810   23.5150   32.4760 c3         3 MGO      0.092199
     47 H2         26.7480   23.6730   32.6600 h1         3 MGO      0.102926
     48 O2         25.2990   24.1740   31.2580 oh         3 MGO     -0.586639
     49 HO2        24.4440   24.6180   31.3730 ho         3 MGO      0.425065
     50 C3         25.3990   22.0390   32.2880 c3         3 MGO      0.093211
     51 H3         24.3550   21.9000   31.9940 h1         3 MGO      0.064468
     52 O3         26.2850   21.5800   31.2550 oh         3 MGO     -0.592567
     53 HO3        26.3360   22.2940   30.6040 ho         3 MGO      0.421017
     54 C4         25.6870   21.2810   33.5750 c3         3 MGO      0.127621
     55 H4         26.7580   21.3320   33.7860 h1         3 MGO      0.080661
     56 C5         24.9010   21.8710   34.7560 c3         3 MGO      0.104343
     57 H5         23.8370   21.7680   34.5330 h1         3 MGO      0.068516
     58 O5         25.2080   23.3230   34.8640 os         3 MGO     -0.427383
     59 C6         25.1160   21.2130   36.1260 c3         3 MGO      0.141081
     60 H61        24.4030   20.3970   36.2590 h1         3 MGO      0.057384
     61 H62        24.9510   21.9420   36.9240 h1         3 MGO      0.057384
     62 O6         26.4440   20.6800   36.2320 oh         3 MGO     -0.593555
     63 HO6        26.4280   19.7680   35.9100 ho         3 MGO      0.422027
     64 C1         19.9630   26.2450   33.6430 c3         4 MGO      0.304529
     65 H1         19.3020   27.1240   33.7710 h2         4 MGO      0.090782
     66 O1         19.1930   25.0310   33.3400 os         4 MGO     -0.453070
     67 C2         20.9070   26.5280   32.4780 c3         4 MGO      0.092199
     68 H2         21.4480   27.4600   32.6630 h1         4 MGO      0.102926
     69 O2         20.1540   26.6410   31.2580 oh         4 MGO     -0.586639
     70 HO2        19.2730   26.2500   31.3750 ho         4 MGO      0.425065
     71 C3         21.8850   25.3880   32.2890 c3         4 MGO      0.093211
     72 H3         21.3430   24.4850   31.9940 h1         4 MGO      0.064468
     73 O3         22.7970   25.7940   31.2560 oh         4 MGO     -0.592567
     74 HO3        22.2710   26.2800   30.6060 ho         4 MGO      0.421017
     75 C4         22.6570   25.1380   33.5740 c3         4 MGO      0.127621
     76 H4         23.2850   26.0080   33.7870 h1         4 MGO      0.080661
     77 C5         21.7060   24.8920   34.7560 c3         4 MGO      0.104343
     78 H5         21.1230   23.9960   34.5340 h1         4 MGO      0.068516
     79 O5         20.7630   26.0370   34.8650 os         4 MGO     -0.427383
     80 C6         22.3560   24.6500   36.1260 c3         4 MGO      0.141081
     81 H61        22.5480   23.5820   36.2590 h1         4 MGO      0.057384
     82 H62        21.6820   24.9740   36.9240 h1         4 MGO      0.057384
     83 O6         23.5990   25.3540   36.2320 oh         4 MGO     -0.593555
     84 HO6        24.3030   24.7760   35.9100 ho         4 MGO      0.422027
     85 C1         15.2080   23.7590   33.6430 c3         5 MGO      0.304529
     86 H1         14.1080   23.7910   33.7720 h2         5 MGO      0.090782
     87 O1         15.6760   22.4010   33.3400 os         5 MGO     -0.453070
     88 C2         15.5740   24.6750   32.4780 c3         5 MGO      0.092199
     89 H2         15.1830   25.6790   32.6640 h1         5 MGO      0.102926
     90 O2         15.0170   24.1570   31.2600 oh         5 MGO     -0.586639
     91 HO2        14.7740   23.2240   31.3750 ho         5 MGO      0.425065
     92 C3         17.0770   24.7280   32.2900 c3         5 MGO      0.093211
     93 H3         17.4450   23.7410   31.9950 h1         5 MGO      0.064468
     94 O3         17.3270   25.6950   31.2570 oh         5 MGO     -0.592567
     95 HO3        16.6200   25.5860   30.6060 ho         5 MGO      0.421017
     96 C4         17.7520   25.1770   33.5760 c3         5 MGO      0.127621
     97 H4         17.4650   26.2090   33.7890 h1         5 MGO      0.080661
     98 C5         17.3530   24.2780   34.7570 c3         5 MGO      0.104343
     99 H5         17.6890   23.2640   34.5340 h1         5 MGO      0.068516
    100 O5         15.8690   24.2550   34.8660 os         5 MGO     -0.427383
    101 C6         17.9470   24.6340   36.1270 c3         5 MGO      0.141081
    102 H61        18.9010   24.1200   36.2590 h1         5 MGO      0.057384
    103 H62        17.2740   24.3100   36.9250 h1         5 MGO      0.057384
    104 O6         18.1710   26.0470   36.2330 oh         5 MGO     -0.593555
    105 HO6        19.0620   26.2350   35.9110 ho         5 MGO      0.422027
    106 C1         14.1860   18.4920   33.6420 c3         6 MGO      0.304529
    107 H1         13.4750   17.6520   33.7700 h2         6 MGO      0.090782
    108 O1         15.5400   18.0100   33.3390 os         6 MGO     -0.453070
    109 C2         13.6990   19.3500   32.4770 c3         6 MGO      0.092199
    110 H2         12.6700   19.6700   32.6620 h1         6 MGO      0.102926
    111 O2         13.7570   18.5910   31.2580 oh         6 MGO     -0.586639
    112 HO2        14.3350   17.8190   31.3730 ho         6 MGO      0.425065
    113 C3         14.5950   20.5570   32.2890 c3         6 MGO      0.093211
    114 H3         15.5950   20.2290   31.9940 h1         6 MGO      0.064468
    115 O3         13.9950   21.3560   31.2560 oh         6 MGO     -0.592567
    116 HO3        13.6390   20.7350   30.6050 ho         6 MGO      0.421017
    117 C4         14.6640   21.3640   33.5760 c3         6 MGO      0.127621
    118 H4         13.6780   21.7830   33.7870 h1         6 MGO      0.080661
    119 C5         15.1170   20.4920   34.7560 c3         6 MGO      0.104343
    120 H5         16.1200   20.1230   34.5340 h1         6 MGO      0.068516
    121 O5         14.2100   19.3170   34.8650 os         6 MGO     -0.427383
    122 C6         15.2080   21.1780   36.1260 c3         6 MGO      0.141081
    123 H61        16.2050   21.6030   36.2590 h1         6 MGO      0.057384
    124 H62        15.0410   20.4490   36.9240 h1         6 MGO      0.057384
    125 O6         14.2440   22.2340   36.2320 oh         6 MGO     -0.593555
    126 HO6        14.6530   23.0490   35.9120 ho         6 MGO      0.422027
    127 C1         17.6680   14.4090   33.6420 c3         7 MGO      0.304529
    128 H1         17.8820   13.3300   33.7700 h2         7 MGO      0.090782
    129 O1         18.8880   15.1680   33.3390 os         7 MGO     -0.453070
    130 C2         16.6940   14.5630   32.4760 c3         7 MGO      0.092199
    131 H2         15.8010   13.9580   32.6620 h1         7 MGO      0.102926
    132 O2         17.3230   14.1360   31.2580 oh         7 MGO     -0.586639
    133 HO2        18.2870   14.1060   31.3740 ho         7 MGO      0.425065
    134 C3         16.3080   16.0150   32.2890 c3         7 MGO      0.093211
    135 H3         17.1880   16.5940   31.9930 h1         7 MGO      0.064468
    136 O3         15.3100   16.0450   31.2550 oh         7 MGO     -0.592567
    137 HO3        15.5730   15.3800   30.6050 ho         7 MGO      0.421017
    138 C4         15.7200   16.5750   33.5750 c3         7 MGO      0.127621
    139 H4         14.7770   16.0640   33.7870 h1         7 MGO      0.080661
    140 C5         16.6840   16.3840   34.7570 c3         7 MGO      0.104343
    141 H5         17.5980   16.9380   34.5330 h1         7 MGO      0.068516
    142 O5         17.0360   14.9430   34.8640 os         7 MGO     -0.427383
    143 C6         16.2040   16.8840   36.1270 c3         7 MGO      0.141081
    144 H61        16.4930   17.9280   36.2600 h1         7 MGO      0.057384
    145 H62        16.6690   16.2990   36.9230 h1         7 MGO      0.057384
    146 O6         14.7770   16.7880   36.2320 oh         7 MGO     -0.593555
    147 HO6        14.3950   17.6150   35.9100 ho         7 MGO      0.422027
@<TRIPOS>BOND
    1    17    20 1
    2    14    16 1
    3    14    17 1
    4    12    14 1
    5    12   129 1
    6     8    10 1
    7     8    12 1
    8     4     6 1
    9     4     8 1
   10     3    33 1
   11     1     3 1
   12     1     4 1
   13     1    16 1
   14    38    41 1
   15    35    37 1
   16    35    38 1
   17    33    35 1
   18    29    31 1
   19    29    33 1
   20    25    27 1
   21    25    29 1
   22    24    54 1
   23    22    24 1
   24    22    25 1
   25    22    37 1
   26    59    62 1
   27    56    58 1
   28    56    59 1
   29    54    56 1
   30    50    52 1
   31    50    54 1
   32    46    48 1
   33    46    50 1
   34    45    75 1
   35    43    45 1
   36    43    46 1
   37    43    58 1
   38    80    83 1
   39    77    79 1
   40    77    80 1
   41    75    77 1
   42    71    73 1
   43    71    75 1
   44    67    69 1
   45    67    71 1
   46    66    96 1
   47    64    66 1
   48    64    67 1
   49    64    79 1
   50   101   104 1
   51    98   100 1
   52    98   101 1
   53    96    98 1
   54    92    94 1
   55    92    96 1
   56    88    90 1
   57    88    92 1
   58    87   117 1
   59    85    87 1
   60    85    88 1
   61    85   100 1
   62   122   125 1
   63   119   121 1
   64   119   122 1
   65   117   119 1
   66   113   115 1
   67   113   117 1
   68   109   111 1
   69   109   113 1
   70   108   138 1
   71   106   108 1
   72   106   109 1
   73   106   121 1
   74   143   146 1
   75   140   142 1
   76   140   143 1
   77   138   140 1
   78   134   136 1
   79   134   138 1
   80   130   132 1
   81   130   134 1
   82   127   129 1
   83   127   130 1
   84   127   142 1
   85    20    21 1
   86    17    18 1
   87    17    19 1
   88    14    15 1
   89    12    13 1
   90    10    11 1
   91     8     9 1
   92     6     7 1
   93     4     5 1
   94     1     2 1
   95    41    42 1
   96    38    39 1
   97    38    40 1
   98    35    36 1
   99    33    34 1
  100    31    32 1
  101    29    30 1
  102    27    28 1
  103    25    26 1
  104    22    23 1
  105    62    63 1
  106    59    60 1
  107    59    61 1
  108    56    57 1
  109    54    55 1
  110    52    53 1
  111    50    51 1
  112    48    49 1
  113    46    47 1
  114    43    44 1
  115    83    84 1
  116    80    81 1
  117    80    82 1
  118    77    78 1
  119    75    76 1
  120    73    74 1
  121    71    72 1
  122    69    70 1
  123    67    68 1
  124    64    65 1
  125   104   105 1
  126   101   102 1
  127   101   103 1
  128    98    99 1
  129    96    97 1
  130    94    95 1
  131    92    93 1
  132    90    91 1
  133    88    89 1
  134    85    86 1
  135   125   126 1
  136   122   123 1
  137   122   124 1
  138   119   120 1
  139   117   118 1
  140   115   116 1
  141   113   114 1
  142   111   112 1
  143   109   110 1
  144   106   107 1
  145   146   147 1
  146   143   144 1
  147   143   145 1
  148   140   141 1
  149   138   139 1
  150   136   137 1
  151   134   135 1
  152   132   133 1
  153   130   131 1
  154   127   128 1
@<TRIPOS>SUBSTRUCTURE
      1 MGO               1 ****               0 ****  **** 
      2 MGO              22 ****               0 ****  **** 
      3 MGO              43 ****               0 ****  **** 
      4 MGO              64 ****               0 ****  **** 
      5 MGO              85 ****               0 ****  **** 
      6 MGO             106 ****               0 ****  **** 
      7 MGO             127 ****               0 ****  **** 
