@<TRIPOS>MOLECULE
Cpptraj
   26    25     1     0     0
SMALL
No Charge or Current Charge


@<TRIPOS>ATOM
      1 C1          20.5280    19.6970    31.2560 C.3        1 MHA      -0.097075
      2 H3          20.3350    20.3020    30.3680 H          1 MHA       0.043378
      3 H4          21.5620    19.3440    31.2130 H          1 MHA       0.043378
      4 H5          19.8630    18.8310    31.2330 H          1 MHA       0.043378
      5 C2          20.2910    20.5300    32.5300 C.3        1 MHA      -0.079379
      6 H6          19.2600    20.8920    32.5360 H          1 MHA       0.045212
      7 H7          20.9480    21.4030    32.5160 H          1 MHA       0.045212
      8 C3          20.5580    19.6980    33.8010 C.3        1 MHA      -0.081379
      9 H8          19.9000    18.8250    33.8090 H          1 MHA       0.049213
     10 H9          21.5880    19.3350    33.7910 H          1 MHA       0.049213
     11 C4          20.3180    20.5330    35.0780 C.3        1 MHA      -0.079379
     12 H10         19.2860    20.8930    35.0880 H          1 MHA       0.055714
     13 H11         20.9740    21.4080    35.0610 H          1 MHA       0.055714
     14 C5          20.5850    19.6990    36.3500 C.3        1 MHA      -0.109372
     15 H12         19.9560    18.8050    36.3200 H          1 MHA       0.069218
     16 H13         21.6250    19.3610    36.3600 H          1 MHA       0.069218
     17 C6          20.2770    20.4860    37.6440 C.3        1 MHA       0.128533
     18 H14         20.9410    21.3540    37.6930 H          1 MHA       0.111729
     19 C7          18.8210    20.9780    37.6030 C.3        1 MHA      -0.138064
     20 H15         18.1210    20.1380    37.5560 H          1 MHA       0.082721
     21 H16         18.6540    21.6110    36.7280 H          1 MHA       0.082721
     22 H17         18.5870    21.5710    38.4910 H          1 MHA       0.082721
     23 N1          20.5280    19.6970    38.8950 N.4        1 MHA      -0.847381
     24 H1          21.5140    19.3990    38.9660 H          1 MHA       0.458252
     25 H2          20.3170    20.2540    39.7380 H          1 MHA       0.458252
     26 HN11        19.9430    18.8490    38.9290 H          1 MHA       0.458252
@<TRIPOS>BOND
     1    17    19 1   
     2    17    23 1   
     3    14    17 1   
     4    11    14 1   
     5     8    11 1   
     6     5     8 1   
     7     1     5 1   
     8    23    24 1   
     9    23    25 1   
    10    23    26 1   
    11    19    20 1   
    12    19    21 1   
    13    19    22 1   
    14    17    18 1   
    15    14    15 1   
    16    14    16 1   
    17    11    12 1   
    18    11    13 1   
    19     8     9 1   
    20     8    10 1   
    21     5     6 1   
    22     5     7 1   
    23     1     2 1   
    24     1     3 1   
    25     1     4 1   
@<TRIPOS>SUBSTRUCTURE
     1 MHA         1 TEMP              0 ****  ****    0 ROOT
