@<TRIPOS>MOLECULE
Cpptraj generated mol2 file.
  126   132     6     0     0
SMALL
USER_CHARGES


@<TRIPOS>ATOM
      1 C1         16.5540   14.5700   35.0300 c3         1 MGO      0.304529
      2 H1         15.6160   13.9980   34.8940 h2         1 MGO      0.090782
      3 O1         16.2820   15.9670   35.3910 os         1 MGO     -0.453070
      4 C2         17.3520   13.9330   36.1630 c3         1 MGO      0.092199
      5 H2         17.5450   12.8800   35.9370 h1         1 MGO      0.102926
      6 O2         16.6030   14.0410   37.3850 oh         1 MGO     -0.586639
      7 HO2        15.9380   14.7400   37.2970 ho         1 MGO      0.425065
      8 C3         18.6550   14.6750   36.3750 c3         1 MGO      0.093211
      9 H3         18.4390   15.6900   36.7220 h1         1 MGO      0.064468
     10 O3         19.3900   13.9510   37.3740 oh         1 MGO     -0.592567
     11 HO3        18.7410   13.6330   38.0170 ho         1 MGO      0.421017
     12 C4         19.4690   14.7340   35.0910 c3         1 MGO      0.127621
     13 H4         19.8420   13.7330   34.8570 h1         1 MGO      0.080661
     14 C5         18.6410   15.2800   33.9140 c3         1 MGO      0.104343
     15 H5         18.3860   16.3170   34.1460 h1         1 MGO      0.068516
     16 O5         17.3700   14.5140   33.8030 os         1 MGO     -0.427383
     17 C6         19.3160   15.3110   32.5350 c3         1 MGO      0.141081
     18 H61        19.7980   16.2800   32.3830 h1         1 MGO      0.057384
     19 H62        18.5700   15.1780   31.7480 h1         1 MGO      0.057384
     20 O6         20.3110   14.2850   32.4310 oh         1 MGO     -0.593555
     21 HO6        21.1510   14.6510   32.7370 ho         1 MGO      0.422027
     22 C1         13.3240   18.8660   34.9980 c3         2 MGO      0.304529
     23 H1         12.3600   19.3920   34.8510 h2         2 MGO      0.090782
     24 O1         14.3950   19.8040   35.3590 os         2 MGO     -0.453070
     25 C2         13.1620   17.8670   36.1380 c3         2 MGO      0.092199
     26 H2         12.3490   17.1710   35.9120 h1         2 MGO      0.102926
     27 O2         12.8730   18.5800   37.3520 oh         2 MGO     -0.586639
     28 HO2        13.1470   19.5050   37.2580 ho         2 MGO      0.425065
     29 C3         14.4560   17.1120   36.3650 c3         2 MGO      0.093211
     30 H3         15.2240   17.8090   36.7120 h1         2 MGO      0.064468
     31 O3         14.1890   16.1200   37.3710 oh         2 MGO     -0.592567
     32 HO3        13.5850   16.5290   38.0070 ho         2 MGO      0.421017
     33 C4         14.9230   16.4240   35.0900 c3         2 MGO      0.127621
     34 H4         14.2440   15.5990   34.8590 h1         2 MGO      0.080661
     35 C5         14.9900   17.4060   33.9050 c3         2 MGO      0.104343
     36 H5         15.7590   18.1460   34.1370 h1         2 MGO      0.068516
     37 O5         13.6920   18.1220   33.7800 os         2 MGO     -0.427383
     38 C6         15.3640   16.8240   32.5340 c3         2 MGO      0.141081
     39 H61        16.4440   16.8900   32.3880 h1         2 MGO      0.057384
     40 H62        14.8800   17.3970   31.7390 h1         2 MGO      0.057384
     41 O6         14.9730   15.4490   32.4380 oh         2 MGO     -0.593555
     42 HO6        15.7080   14.9060   32.7540 ho         2 MGO      0.422027
     43 C1         15.4300   23.8120   34.9410 c3         3 MGO      0.304529
     44 H1         15.4030   24.9080   34.7840 h2         3 MGO      0.090782
     45 O1         16.7740   23.3560   35.3150 os         3 MGO     -0.453070
     46 C2         14.4750   23.4610   36.0770 c3         3 MGO      0.092199
     47 H2         13.4670   23.8150   35.8410 h1         3 MGO      0.102926
     48 O2         14.9380   24.0780   37.2890 oh         3 MGO     -0.586639
     49 HO2        15.8770   24.3030   37.2000 ho         3 MGO      0.425065
     50 C3         14.4660   21.9650   36.3160 c3         3 MGO      0.093211
     51 H3         15.4510   21.6510   36.6720 h1         3 MGO      0.064468
     52 O3         13.4670   21.7090   37.3170 oh         3 MGO     -0.592567
     53 HO3        13.5150   22.4410   37.9460 ho         3 MGO      0.421017
     54 C4         14.1130   21.2070   35.0450 c3         3 MGO      0.127621
     55 H4         13.0610   21.3800   34.8030 h1         3 MGO      0.080661
     56 C5         15.0050   21.6300   33.8630 c3         3 MGO      0.104343
     57 H5         16.0280   21.3360   34.1040 h1         3 MGO      0.068516
     58 O5         14.9780   23.1110   33.7250 os         3 MGO     -0.427383
     59 C6         14.6990   21.0050   32.4940 c3         3 MGO      0.141081
     60 H61        15.2970   20.1010   32.3600 h1         3 MGO      0.057384
     61 H62        14.9590   21.7030   31.6960 h1         3 MGO      0.057384
     62 O6         13.3120   20.6540   32.3910 oh         3 MGO     -0.593555
     63 HO6        13.2090   19.7500   32.7140 ho         3 MGO      0.422027
     64 C1         20.7650   24.4620   34.9170 c3         4 MGO      0.304529
     65 H1         21.7030   25.0310   34.7620 h2         4 MGO      0.090782
     66 O1         21.0400   23.0720   35.3030 os         4 MGO     -0.453070
     67 C2         19.9760   25.1220   36.0420 c3         4 MGO      0.092199
     68 H2         19.7810   26.1700   35.7960 h1         4 MGO      0.102926
     69 O2         20.7330   25.0390   37.2600 oh         4 MGO     -0.586639
     70 HO2        21.3980   24.3370   37.1810 ho         4 MGO      0.425065
     71 C3         18.6750   24.3840   36.2780 c3         4 MGO      0.093211
     72 H3         18.8930   23.3760   36.6430 h1         4 MGO      0.064468
     73 O3         17.9460   25.1280   37.2670 oh         4 MGO     -0.592567
     74 HO3        18.5990   25.4580   37.8990 ho         4 MGO      0.421017
     75 C4         17.8510   24.3000   35.0010 c3         4 MGO      0.127621
     76 H4         17.4770   25.2950   34.7490 h1         4 MGO      0.080661
     77 C5         18.6710   23.7300   33.8300 c3         4 MGO      0.104343
     78 H5         18.9270   22.6990   34.0810 h1         4 MGO      0.068516
     79 O5         19.9400   24.4930   33.6940 os         4 MGO     -0.427383
     80 C6         17.9870   23.6710   32.4560 c3         4 MGO      0.141081
     81 H61        17.5030   22.7010   32.3270 h1         4 MGO      0.057384
     82 H62        18.7260   23.7890   31.6610 h1         4 MGO      0.057384
     83 O6         16.9910   24.6950   32.3380 oh         4 MGO     -0.593555
     84 HO6        16.1530   24.3350   32.6570 ho         4 MGO      0.422027
     85 C1         23.9950   20.1660   34.9480 c3         5 MGO      0.304529
     86 H1         24.9580   19.6370   34.8040 h2         5 MGO      0.090782
     87 O1         22.9260   19.2360   35.3350 os         5 MGO     -0.453070
     88 C2         24.1660   21.1870   36.0670 c3         5 MGO      0.092199
     89 H2         24.9770   21.8790   35.8210 h1         5 MGO      0.102926
     90 O2         24.4630   20.4990   37.2920 oh         5 MGO     -0.586639
     91 HO2        24.1890   19.5730   37.2180 ho         5 MGO      0.425065
     92 C3         22.8740   21.9480   36.2870 c3         5 MGO      0.093211
     93 H3         22.1080   21.2570   36.6530 h1         5 MGO      0.064468
     94 O3         23.1480   22.9590   37.2710 oh         5 MGO     -0.592567
     95 HO3        23.7550   22.5630   37.9100 ho         5 MGO      0.421017
     96 C4         22.3980   22.6100   35.0020 c3         5 MGO      0.127621
     97 H4         23.0740   23.4290   34.7490 h1         5 MGO      0.080661
     98 C5         22.3220   21.6050   33.8380 c3         5 MGO      0.104343
     99 H5         21.5560   20.8690   34.0890 h1         5 MGO      0.068516
    100 O5         23.6190   20.8860   33.7180 os         5 MGO     -0.427383
    101 C6         21.9390   22.1580   32.4580 c3         5 MGO      0.141081
    102 H61        20.8570   22.0890   32.3210 h1         5 MGO      0.057384
    103 H62        22.4160   21.5700   31.6700 h1         5 MGO      0.057384
    104 O6         22.3290   23.5320   32.3310 oh         5 MGO     -0.593555
    105 HO6        21.5960   24.0790   32.6410 ho         5 MGO      0.422027
    106 C1         21.8900   15.2200   35.0050 c3         6 MGO      0.304529
    107 H1         21.9150   14.1210   34.8690 h2         6 MGO      0.090782
    108 O1         20.5480   15.6830   35.3790 os         6 MGO     -0.453070
    109 C2         22.8530   15.5930   36.1260 c3         6 MGO      0.092199
    110 H2         23.8590   15.2350   35.8910 h1         6 MGO      0.102926
    111 O2         22.3970   15.0010   37.3540 oh         6 MGO     -0.586639
    112 HO2        21.4580   14.7750   37.2760 ho         6 MGO      0.425065
    113 C3         22.8640   17.0930   36.3360 c3         6 MGO      0.093211
    114 H3         21.8800   17.4140   36.6920 h1         6 MGO      0.064468
    115 O3         23.8700   17.3700   37.3230 oh         6 MGO     -0.592567
    116 HO3        23.8260   16.6510   37.9680 ho         6 MGO      0.421017
    117 C4         23.2070   17.8260   35.0470 c3         6 MGO      0.127621
    118 H4         24.2570   17.6480   34.8010 h1         6 MGO      0.080661
    119 C5         22.3070   17.3800   33.8800 c3         6 MGO      0.104343
    120 H5         21.2850   17.6780   34.1220 h1         6 MGO      0.068516
    121 O5         22.3340   15.8960   33.7720 os         6 MGO     -0.427383
    122 C6         22.6030   17.9780   32.4970 c3         6 MGO      0.141081
    123 H61        22.0040   18.8790   32.3490 h1         6 MGO      0.057384
    124 H62        22.3370   17.2640   31.7140 h1         6 MGO      0.057384
    125 O6         23.9890   18.3260   32.3770 oh         6 MGO     -0.593555
    126 HO6        24.0950   19.2370   32.6800 ho         6 MGO      0.422027
@<TRIPOS>BOND
    1    17    20 1
    2    14    16 1
    3    14    17 1
    4    12    14 1
    5    12   108 1
    6     8    10 1
    7     8    12 1
    8     4     6 1
    9     4     8 1
   10     3    33 1
   11     1     3 1
   12     1     4 1
   13     1    16 1
   14    38    41 1
   15    35    37 1
   16    35    38 1
   17    33    35 1
   18    29    31 1
   19    29    33 1
   20    25    27 1
   21    25    29 1
   22    24    54 1
   23    22    24 1
   24    22    25 1
   25    22    37 1
   26    59    62 1
   27    56    58 1
   28    56    59 1
   29    54    56 1
   30    50    52 1
   31    50    54 1
   32    46    48 1
   33    46    50 1
   34    45    75 1
   35    43    45 1
   36    43    46 1
   37    43    58 1
   38    80    83 1
   39    77    79 1
   40    77    80 1
   41    75    77 1
   42    71    73 1
   43    71    75 1
   44    67    69 1
   45    67    71 1
   46    66    96 1
   47    64    66 1
   48    64    67 1
   49    64    79 1
   50   101   104 1
   51    98   100 1
   52    98   101 1
   53    96    98 1
   54    92    94 1
   55    92    96 1
   56    88    90 1
   57    88    92 1
   58    87   117 1
   59    85    87 1
   60    85    88 1
   61    85   100 1
   62   122   125 1
   63   119   121 1
   64   119   122 1
   65   117   119 1
   66   113   115 1
   67   113   117 1
   68   109   111 1
   69   109   113 1
   70   106   108 1
   71   106   109 1
   72   106   121 1
   73    20    21 1
   74    17    18 1
   75    17    19 1
   76    14    15 1
   77    12    13 1
   78    10    11 1
   79     8     9 1
   80     6     7 1
   81     4     5 1
   82     1     2 1
   83    41    42 1
   84    38    39 1
   85    38    40 1
   86    35    36 1
   87    33    34 1
   88    31    32 1
   89    29    30 1
   90    27    28 1
   91    25    26 1
   92    22    23 1
   93    62    63 1
   94    59    60 1
   95    59    61 1
   96    56    57 1
   97    54    55 1
   98    52    53 1
   99    50    51 1
  100    48    49 1
  101    46    47 1
  102    43    44 1
  103    83    84 1
  104    80    81 1
  105    80    82 1
  106    77    78 1
  107    75    76 1
  108    73    74 1
  109    71    72 1
  110    69    70 1
  111    67    68 1
  112    64    65 1
  113   104   105 1
  114   101   102 1
  115   101   103 1
  116    98    99 1
  117    96    97 1
  118    94    95 1
  119    92    93 1
  120    90    91 1
  121    88    89 1
  122    85    86 1
  123   125   126 1
  124   122   123 1
  125   122   124 1
  126   119   120 1
  127   117   118 1
  128   115   116 1
  129   113   114 1
  130   111   112 1
  131   109   110 1
  132   106   107 1
@<TRIPOS>SUBSTRUCTURE
      1 MGO               1 ****               0 ****  **** 
      2 MGO              22 ****               0 ****  **** 
      3 MGO              43 ****               0 ****  **** 
      4 MGO              64 ****               0 ****  **** 
      5 MGO              85 ****               0 ****  **** 
      6 MGO             106 ****               0 ****  **** 
