@<TRIPOS>MOLECULE
Cpptraj
   20    19     1     0     0
SMALL
No Charge or Current Charge


@<TRIPOS>ATOM
      1 N1          18.6630    19.5750    39.3140 N.4        1 PAM      -0.839354
      2 H1          17.6420    19.7070    39.4030 H          1 PAM       0.461935
      3 H2          18.8510    18.5630    39.4030 H          1 PAM       0.461935
      4 HN11        19.1010    20.0380    40.1270 H          1 PAM       0.461935
      5 C1          19.1870    20.1290    38.0080 C.3        1 PAM       0.098829
      6 H3          20.2700    19.9830    38.0030 H          1 PAM       0.113733
      7 H4          18.9810    21.2020    38.0030 H          1 PAM       0.113733
      8 C2          18.5640    19.4710    36.7620 C.3        1 PAM      -0.111367
      9 H5          18.7630    18.3950    36.7790 H          1 PAM       0.069720
     10 H6          17.4800    19.6090    36.7790 H          1 PAM       0.069720
     11 C3          19.1450    20.0850    35.4720 C.3        1 PAM      -0.080376
     12 H7          20.2300    19.9480    35.4580 H          1 PAM       0.057717
     13 H8          18.9480    21.1600    35.4580 H          1 PAM       0.057717
     14 C4          18.5300    19.4350    34.2140 C.3        1 PAM      -0.078377
     15 H9          18.7270    18.3590    34.2220 H          1 PAM       0.048714
     16 H10         17.4460    19.5720    34.2220 H          1 PAM       0.048714
     17 C5          19.1100    20.0470    32.9260 C.3        1 PAM      -0.098071
     18 H11         20.1910    19.9000    32.8810 H          1 PAM       0.047714
     19 H12         18.6630    19.5750    32.0490 H          1 PAM       0.047714
     20 H13         18.9030    21.1190    32.8810 H          1 PAM       0.047715
@<TRIPOS>BOND
     1    14    17 1   
     2    11    14 1   
     3     8    11 1   
     4     5     8 1   
     5     1     5 1   
     6    17    18 1   
     7    17    19 1   
     8    17    20 1   
     9    14    15 1   
    10    14    16 1   
    11    11    12 1   
    12    11    13 1   
    13     8     9 1   
    14     8    10 1   
    15     5     6 1   
    16     5     7 1   
    17     1     2 1   
    18     1     3 1   
    19     1     4 1   
@<TRIPOS>SUBSTRUCTURE
     1 PAM         1 TEMP              0 ****  ****    0 ROOT
