@<TRIPOS>MOLECULE
MO3
   21    21     1     0     0
SMALL
bcc


@<TRIPOS>ATOM
      1 C1          3.6990    0.0350    0.5380 c3        1 MO3      0.115700
      2 H2          4.4480    0.0440   -0.2590 h1        1 MO3      0.041033
      3 H3          3.8200    0.9310    1.1540 h1        1 MO3      0.041033
      4 H4          3.8360   -0.8590    1.1520 h1        1 MO3      0.041033
      5 O1          2.3770    0.0240   -0.0560 os        1 MO3     -0.352900
      6 C2          1.2110    0.0120    0.6910 ca        1 MO3      0.105100
      7 C3          0.0000    0.0000   -0.0000 ca        1 MO3     -0.191000
      8 H5          0.0030    0.0000   -1.0890 ha        1 MO3      0.123000
      9 C4         -1.2080   -0.0110    0.6930 ca        1 MO3     -0.119000
     10 H6         -2.1530   -0.0200    0.1470 ha        1 MO3      0.106000
     11 C5         -1.2050   -0.0110    2.0860 ca        1 MO3     -0.185000
     12 H7         -2.1510   -0.0230    2.6260 ha        1 MO3      0.120000
     13 C6          0.0000   -0.0030    2.7920 ca        1 MO3      0.014700
     14 C7          1.2060    0.0110    2.0900 ca        1 MO3     -0.192000
     15 H8          2.1410    0.0200    2.6450 ha        1 MO3      0.196000
     16 C8          0.0000    0.0000    4.3130 c3        1 MO3     -0.177100
     17 H9         -0.9130    0.4780    4.6820 hc        1 MO3      0.039200
     18 H10         0.8300    0.6140    4.6770 hc        1 MO3      0.039200
     19 C9          0.1160   -1.4150    4.8720  c        1 MO3      0.918600
     20 O2         -0.8930   -2.0310    5.1760  o        1 MO3     -0.841800
     21 O3          1.2200   -1.9150    5.0240  o        1 MO3     -0.841799
@<TRIPOS>BOND
     1    1    2 1   
     2    1    3 1   
     3    1    4 1   
     4    1    5 1   
     5    5    6 1   
     6    6    7 ar  
     7    6   14 ar  
     8    7    8 1   
     9    7    9 ar  
    10    9   10 1   
    11    9   11 ar  
    12   11   12 1   
    13   11   13 ar  
    14   13   14 ar  
    15   13   16 1   
    16   14   15 1   
    17   16   17 1   
    18   16   18 1   
    19   16   19 1   
    20   19   20 1   
    21   19   21 1   
@<TRIPOS>SUBSTRUCTURE
     1 MO3         1 TEMP              0 ****  ****    0 ROOT
