@<TRIPOS>MOLECULE
Cpptraj
  147   154     1     0     0
SMALL
No Charge or Current Charge


@<TRIPOS>ATOM
      1 C1          13.7330    18.4010    33.1490 C.3        1 MGO       0.304529
      2 H1          12.6840    18.7340    33.0200 H          1 MGO       0.090782
      3 O1          14.6220    19.5300    33.4520 O.3        1 MGO      -0.453070
      4 C2          13.7770    17.4160    34.3130 C.3        1 MGO       0.092199
      5 H2          13.0770    16.5970    34.1280 H          1 MGO       0.102926
      6 O2          13.4210    18.0890    35.5320 O.3        1 MGO      -0.586639
      7 HO2         13.5000    19.0500    35.4170 H          1 MGO       0.425065
      8 C3          15.1770    16.8700    34.5020 C.3        1 MGO       0.093211
      9 H3          15.8490    17.6800    34.7970 H          1 MGO       0.064468
     10 O3          15.0940    15.8740    35.5350 O.3        1 MGO      -0.592567
     11 HO3         14.4620    16.2110    36.1860 H          1 MGO       0.421017
     12 C4          15.6670    16.2240    33.2160 C.3        1 MGO       0.127621
     13 H4          15.0550    15.3440    33.0040 H          1 MGO       0.080661
     14 C5          15.5850    17.2030    32.0350 C.3        1 MGO       0.104343
     15 H5          16.2390    18.0500    32.2570 H          1 MGO       0.068516
     16 O5          14.1930    17.7140    31.9260 O.3        1 MGO      -0.427383
     17 C6          16.0290    16.6700    30.6640 C.3        1 MGO       0.141081
     18 H61         17.1000    16.8420    30.5330 H          1 MGO       0.057384
     19 H62         15.5010    17.1990    29.8680 H          1 MGO       0.057384
     20 O6          15.7760    15.2640    30.5590 O.3        1 MGO      -0.593555
     21 HO6         16.5550    14.7920    30.8800 H          1 MGO       0.422027
     22 C1          14.5060    23.7100    33.1500 C.3        2 MGO       0.304529
     23 H1          14.1120    24.7380    33.0210 H          2 MGO       0.090782
     24 O1          15.9430    23.7190    33.4520 O.3        2 MGO      -0.453070
     25 C2          13.7630    23.0610    34.3150 C.3        2 MGO       0.092199
     26 H2          12.6860    23.0980    34.1300 H          2 MGO       0.102926
     27 O2          14.0680    23.7580    35.5330 O.3        2 MGO      -0.586639
     28 HO2         14.8690    24.2960    35.4180 H          2 MGO       0.425065
     29 C3          14.2100    21.6260    34.5020 C.3        2 MGO       0.093211
     30 H3          15.2630    21.6050    34.7970 H          2 MGO       0.064468
     31 O3          13.3810    21.0700    35.5350 O.3        2 MGO      -0.592567
     32 HO3         13.2490    21.7740    36.1860 H          2 MGO       0.421017
     33 C4          14.0100    20.8410    33.2160 C.3        2 MGO       0.127621
     34 H4          12.9400    20.7700    33.0040 H          2 MGO       0.080661
     35 C5          14.7250    21.5150    32.0350 C.3        2 MGO       0.104343
     36 H5          15.7930    21.5330    32.2580 H          2 MGO       0.068516
     37 O5          14.2570    22.9230    31.9270 O.3        2 MGO      -0.427383
     38 C6          14.5850    20.8370    30.6650 C.3        2 MGO       0.141081
     39 H61         15.3860    20.1070    30.5320 H          2 MGO       0.057384
     40 H62         14.6680    21.5790    29.8670 H          2 MGO       0.057384
     41 O6          13.3260    20.1580    30.5590 O.3        2 MGO      -0.593555
     42 HO6         13.4430    19.2540    30.8800 H          2 MGO       0.422027
     43 C1          19.1390    26.4170    33.1500 C.3        3 MGO       0.304529
     44 H1          19.6980    27.3640    33.0220 H          3 MGO       0.090782
     45 O1          20.0420    25.2970    33.4530 O.3        3 MGO      -0.453070
     46 C2          18.1690    26.5920    34.3150 C.3        3 MGO       0.092199
     47 H2          17.5260    27.4570    34.1310 H          3 MGO       0.102926
     48 O2          18.9050    26.7880    35.5340 O.3        3 MGO      -0.586639
     49 HO2         19.8240    26.4980    35.4180 H          3 MGO       0.425065
     50 C3          17.3260    25.3470    34.5030 C.3        3 MGO       0.093211
     51 H3          17.9660    24.5110    34.7970 H          3 MGO       0.064468
     52 O3          16.3740    25.6490    35.5360 O.3        3 MGO      -0.592567
     53 HO3         16.8430    26.1910    36.1870 H          3 MGO       0.421017
     54 C4          16.5860    25.0150    33.2170 C.3        3 MGO       0.127621
     55 H4          15.8650    25.8080    33.0050 H          3 MGO       0.080661
     56 C5          17.5580    24.8770    32.0360 C.3        3 MGO       0.104343
     57 H5          18.2390    24.0520    32.2580 H          3 MGO       0.068516
     58 O5          18.3680    26.1210    31.9270 O.3        3 MGO      -0.427383
     59 C6          16.9410    24.5630    30.6650 C.3        3 MGO       0.141081
     60 H61         16.8700    23.4820    30.5330 H          3 MGO       0.057384
     61 H62         17.5740    24.9620    29.8680 H          3 MGO       0.057384
     62 O6          15.6250    25.1250    30.5600 O.3        3 MGO      -0.593555
     63 HO6         14.9920    24.4690    30.8810 H          3 MGO       0.422027
     64 C1          24.1440    24.4800    33.1490 C.3        4 MGO       0.304529
     65 H1          25.2330    24.6350    33.0200 H          4 MGO       0.090782
     66 O1          23.8310    23.0780    33.4520 O.3        4 MGO      -0.453070
     67 C2          23.6760    25.3490    34.3130 C.3        4 MGO       0.092199
     68 H2          23.9520    26.3900    34.1290 H          4 MGO       0.102926
     69 O2          24.2890    24.8960    35.5330 O.3        4 MGO      -0.586639
     70 HO2         24.6350    23.9960    35.4170 H          4 MGO       0.425065
     71 C3          22.1780    25.2330    34.5020 C.3        4 MGO       0.093211
     72 H3          21.9230    24.2110    34.7970 H          4 MGO       0.064468
     73 O3          21.8200    26.1650    35.5350 O.3        4 MGO      -0.592567
     74 HO3         22.5360    26.1370    36.1860 H          4 MGO       0.421017
     75 C4          21.4560    25.6020    33.2170 C.3        4 MGO       0.127621
     76 H4          21.6260    26.6610    33.0040 H          4 MGO       0.080661
     77 C5          21.9540    24.7560    32.0350 C.3        4 MGO       0.104343
     78 H5          21.7330    23.7090    32.2580 H          4 MGO       0.068516
     79 O5          23.4310    24.8990    31.9270 O.3        4 MGO      -0.427383
     80 C6          21.3240    25.0440    30.6650 C.3        4 MGO       0.141081
     81 H61         20.4330    24.4240    30.5330 H          4 MGO       0.057384
     82 H62         22.0290    24.7970    29.8670 H          4 MGO       0.057384
     83 O6          20.9420    26.4210    30.5590 O.3        4 MGO      -0.593555
     84 HO6         20.0350    26.5090    30.8820 H          4 MGO       0.422027
     85 C1          25.7510    19.3610    33.1490 C.3        5 MGO       0.304529
     86 H1          26.5500    18.6060    33.0190 H          5 MGO       0.090782
     87 O1          24.4590    18.7310    33.4520 O.3        5 MGO      -0.453070
     88 C2          26.1380    20.2680    34.3130 C.3        5 MGO       0.092199
     89 H2          27.1250    20.7020    34.1280 H          5 MGO       0.102926
     90 O2          26.1660    19.5080    35.5320 O.3        5 MGO      -0.586639
     91 HO2         25.6790    18.6760    35.4170 H          5 MGO       0.425065
     92 C3          25.1130    21.3680    34.5010 C.3        5 MGO       0.093211
     93 H3          24.1550    20.9300    34.7970 H          5 MGO       0.064468
     94 O3          25.6190    22.2280    35.5350 O.3        5 MGO      -0.592567
     95 HO3         26.0430    21.6510    36.1850 H          5 MGO       0.421017
     96 C4          24.9530    22.1620    33.2160 C.3        5 MGO       0.127621
     97 H4          25.8860    22.6890    33.0030 H          5 MGO       0.080661
     98 C5          24.6000    21.2440    32.0350 C.3        5 MGO       0.104343
     99 H5          23.6450    20.7650    32.2580 H          5 MGO       0.068516
    100 O5          25.6340    20.1790    31.9260 O.3        5 MGO      -0.427383
    101 C6          24.4320    21.9160    30.6640 C.3        5 MGO       0.141081
    102 H61         23.3930    22.2270    30.5320 H          5 MGO       0.057384
    103 H62         24.6780    21.2110    29.8670 H          5 MGO       0.057384
    104 O6          25.2710    23.0740    30.5580 O.3        5 MGO      -0.593555
    105 HO6         24.7740    23.8370    30.8800 H          5 MGO       0.422027
    106 C1          22.7500    14.9130    33.1500 C.3        6 MGO       0.304529
    107 H1          22.6590    13.8160    33.0210 H          6 MGO       0.090782
    108 O1          21.4520    15.5290    33.4520 O.3        6 MGO      -0.453070
    109 C2          23.7010    15.1760    34.3140 C.3        6 MGO       0.092199
    110 H2          24.6550    14.6750    34.1300 H          6 MGO       0.102926
    111 O2          23.1230    14.6800    35.5330 O.3        6 MGO      -0.586639
    112 HO2         22.1690    14.5420    35.4180 H          6 MGO       0.425065
    113 C3          23.9210    16.6620    34.5020 C.3        6 MGO       0.093211
    114 H3          22.9810    17.1380    34.7970 H          6 MGO       0.064468
    115 O3          24.9090    16.8040    35.5360 O.3        6 MGO      -0.592567
    116 HO3         24.7230    16.1130    36.1870 H          6 MGO       0.421017
    117 C4          24.4420    17.2830    33.2160 C.3        6 MGO       0.127621
    118 H4          25.4360    16.8820    33.0040 H          6 MGO       0.080661
    119 C5          23.5050    16.9860    32.0350 C.3        6 MGO       0.104343
    120 H5          22.5350    17.4340    32.2570 H          6 MGO       0.068516
    121 O5          23.3170    15.5140    31.9270 O.3        6 MGO      -0.427383
    122 C6          23.9260    17.5360    30.6650 C.3        6 MGO       0.141081
    123 H61         23.5210    18.5410    30.5320 H          6 MGO       0.057384
    124 H62         23.5290    16.9020    29.8680 H          6 MGO       0.057384
    125 O6          25.3550    17.6010    30.5590 O.3        6 MGO      -0.593555
    126 HO6         25.6410    18.4670    30.8800 H          6 MGO       0.422027
    127 C1          17.4010    14.4860    33.1500 C.3        7 MGO       0.304529
    128 H1          16.4870    13.8740    33.0210 H          7 MGO       0.090782
    129 O1          17.0750    15.8850    33.4520 O.3        7 MGO      -0.453070
    130 C2          18.1990    13.9060    34.3150 C.3        7 MGO       0.092199
    131 H2          18.4030    12.8480    34.1300 H          7 MGO       0.102926
    132 O2          17.4520    14.0490    35.5330 O.3        7 MGO      -0.586639
    133 HO2         16.7490    14.7090    35.4180 H          7 MGO       0.425065
    134 C3          19.4990    14.6610    34.5030 C.3        7 MGO       0.093211
    135 H3          19.2850    15.6920    34.7980 H          7 MGO       0.064468
    136 O3          20.2260    13.9770    35.5360 O.3        7 MGO      -0.592567
    137 HO3         19.5690    13.6920    36.1870 H          7 MGO       0.421017
    138 C4          20.3100    14.6410    33.2160 C.3        7 MGO       0.127621
    139 H4          20.6160    13.6130    33.0050 H          7 MGO       0.080661
    140 C5          19.4930    15.1870    32.0350 C.3        7 MGO       0.104343
    141 H5          19.2380    16.2260    32.2580 H          7 MGO       0.068516
    142 O5          18.2260    14.4180    31.9270 O.3        7 MGO      -0.427383
    143 C6          20.1860    15.2020    30.6650 C.3        7 MGO       0.141081
    144 H61         20.7200    16.1450    30.5320 H          7 MGO       0.057384
    145 H62         19.4430    15.1170    29.8680 H          7 MGO       0.057384
    146 O6          21.1280    14.1250    30.5590 O.3        7 MGO      -0.593555
    147 HO6         21.9830    14.4400    30.8810 H          7 MGO       0.422027
@<TRIPOS>BOND
     1    17    20 1   
     2    14    16 1   
     3    14    17 1   
     4    12    14 1   
     5    12   129 1   
     6     8    10 1   
     7     8    12 1   
     8     4     6 1   
     9     4     8 1   
    10     3    33 1   
    11     1     3 1   
    12     1     4 1   
    13     1    16 1   
    14    38    41 1   
    15    35    37 1   
    16    35    38 1   
    17    33    35 1   
    18    29    31 1   
    19    29    33 1   
    20    25    27 1   
    21    25    29 1   
    22    24    54 1   
    23    22    24 1   
    24    22    25 1   
    25    22    37 1   
    26    59    62 1   
    27    56    58 1   
    28    56    59 1   
    29    54    56 1   
    30    50    52 1   
    31    50    54 1   
    32    46    48 1   
    33    46    50 1   
    34    45    75 1   
    35    43    45 1   
    36    43    46 1   
    37    43    58 1   
    38    80    83 1   
    39    77    79 1   
    40    77    80 1   
    41    75    77 1   
    42    71    73 1   
    43    71    75 1   
    44    67    69 1   
    45    67    71 1   
    46    66    96 1   
    47    64    66 1   
    48    64    67 1   
    49    64    79 1   
    50   101   104 1   
    51    98   100 1   
    52    98   101 1   
    53    96    98 1   
    54    92    94 1   
    55    92    96 1   
    56    88    90 1   
    57    88    92 1   
    58    87   117 1   
    59    85    87 1   
    60    85    88 1   
    61    85   100 1   
    62   122   125 1   
    63   119   121 1   
    64   119   122 1   
    65   117   119 1   
    66   113   115 1   
    67   113   117 1   
    68   109   111 1   
    69   109   113 1   
    70   108   138 1   
    71   106   108 1   
    72   106   109 1   
    73   106   121 1   
    74   143   146 1   
    75   140   142 1   
    76   140   143 1   
    77   138   140 1   
    78   134   136 1   
    79   134   138 1   
    80   130   132 1   
    81   130   134 1   
    82   127   129 1   
    83   127   130 1   
    84   127   142 1   
    85    20    21 1   
    86    17    18 1   
    87    17    19 1   
    88    14    15 1   
    89    12    13 1   
    90    10    11 1   
    91     8     9 1   
    92     6     7 1   
    93     4     5 1   
    94     1     2 1   
    95    41    42 1   
    96    38    39 1   
    97    38    40 1   
    98    35    36 1   
    99    33    34 1   
   100    31    32 1   
   101    29    30 1   
   102    27    28 1   
   103    25    26 1   
   104    22    23 1   
   105    62    63 1   
   106    59    60 1   
   107    59    61 1   
   108    56    57 1   
   109    54    55 1   
   110    52    53 1   
   111    50    51 1   
   112    48    49 1   
   113    46    47 1   
   114    43    44 1   
   115    83    84 1   
   116    80    81 1   
   117    80    82 1   
   118    77    78 1   
   119    75    76 1   
   120    73    74 1   
   121    71    72 1   
   122    69    70 1   
   123    67    68 1   
   124    64    65 1   
   125   104   105 1   
   126   101   102 1   
   127   101   103 1   
   128    98    99 1   
   129    96    97 1   
   130    94    95 1   
   131    92    93 1   
   132    90    91 1   
   133    88    89 1   
   134    85    86 1   
   135   125   126 1   
   136   122   123 1   
   137   122   124 1   
   138   119   120 1   
   139   117   118 1   
   140   115   116 1   
   141   113   114 1   
   142   111   112 1   
   143   109   110 1   
   144   106   107 1   
   145   146   147 1   
   146   143   144 1   
   147   143   145 1   
   148   140   141 1   
   149   138   139 1   
   150   136   137 1   
   151   134   135 1   
   152   132   133 1   
   153   130   131 1   
   154   127   128 1   
@<TRIPOS>SUBSTRUCTURE
     1 MGO         1 TEMP              0 ****  ****    0 ROOT
