@<TRIPOS>MOLECULE
Cpptraj
   23    23     1     0     0
SMALL
No Charge or Current Charge


@<TRIPOS>ATOM
      1 C1          21.0960    20.5850    36.4660 C.3        1 PB3      -0.076083
      2 H1          21.6180    21.4440    36.0390 H          1 PB3       0.028706
      3 H2          21.0820    20.7070    37.5510 H          1 PB3       0.028706
      4 H3          21.6680    19.6840    36.2310 H          1 PB3       0.028706
      5 C2          19.6580    20.4950    35.9000 C.3        1 PB3      -0.027394
      6 H4          19.1260    21.3910    36.2310 H          1 PB3       0.083719
      7 C3          18.8940    19.2690    36.4590 C.3        1 PB3      -0.190357
      8 H5          17.9410    19.1720    35.9270 H          1 PB3       0.026206
      9 H6          19.4570    18.3520    36.2460 H          1 PB3       0.026206
     10 C4          18.6190    19.3960    37.9580 C.2        1 PB3       0.907803
     11 O1          17.7780    20.1880    38.3520 O.co2      1 PB3      -0.849610
     12 O2          19.2080    18.6750    38.7460 O.co2      1 PB3      -0.849610
     13 C5          19.6620    20.4890    34.3720 C.ar       1 PB3      -0.037292
     14 C6          19.0420    21.5250    33.6640 C.ar       1 PB3      -0.132970
     15 H7          18.5560    22.3370    34.2010 H          1 PB3       0.135030
     16 C7          19.0390    21.5280    32.2690 C.ar       1 PB3      -0.139969
     17 H8          18.5540    22.3380    31.7270 H          1 PB3       0.112525
     18 C8          19.6580    20.4950    31.5690 C.ar       1 PB3      -0.158964
     19 H9          19.6570    20.4960    30.4790 H          1 PB3       0.110025
     20 C9          20.2790    19.4590    32.2640 C.ar       1 PB3      -0.139969
     21 H10         20.7630    18.6500    31.7170 H          1 PB3       0.112525
     22 C10         20.2810    19.4580    33.6580 C.ar       1 PB3      -0.132970
     23 H11         20.7680    18.6440    34.1920 H          1 PB3       0.135031
@<TRIPOS>BOND
     1    20    22 ar  
     2    18    20 ar  
     3    16    18 ar  
     4    14    16 ar  
     5    13    14 ar  
     6    13    22 ar  
     7    10    11 1   
     8    10    12 1   
     9     7    10 1   
    10     5     7 1   
    11     5    13 1   
    12     1     5 1   
    13    22    23 1   
    14    20    21 1   
    15    18    19 1   
    16    16    17 1   
    17    14    15 1   
    18     7     8 1   
    19     7     9 1   
    20     5     6 1   
    21     1     2 1   
    22     1     3 1   
    23     1     4 1   
@<TRIPOS>SUBSTRUCTURE
     1 PB3         1 TEMP              0 ****  ****    0 ROOT
