@<TRIPOS>MOLECULE
Cpptraj
   16    16     1     0     0
SMALL
No Charge or Current Charge


@<TRIPOS>ATOM
      1 C1          19.8050    19.9570    33.3420 C.3        1 CPE      -0.076981
      2 H2          19.1050    20.4950    32.6990 H          1 CPE       0.042405
      3 H3          20.7230    19.7650    32.7820 H          1 CPE       0.042405
      4 C2          19.2250    18.6320    33.8490 C.3        1 CPE      -0.076981
      5 H4          18.1720    18.7680    34.1090 H          1 CPE       0.042405
      6 H5          19.3020    17.8370    33.1050 H          1 CPE       0.042405
      7 C3          20.0330    18.3190    35.1160 C.3        1 CPE      -0.097503
      8 H6          20.9160    17.7350    34.8490 H          1 CPE       0.052145
      9 H7          19.4440    17.7390    35.8330 H          1 CPE       0.052145
     10 C4          20.4890    19.6800    35.6840 C.3        1 CPE       0.139952
     11 H8          21.5680    19.6600    35.8580 H          1 CPE       0.032666
     12 C5          20.1340    20.7410    34.6230 C.3        1 CPE      -0.097503
     13 H9          19.2560    21.3140    34.9290 H          1 CPE       0.052145
     14 H10         20.9620    21.4340    34.4580 H          1 CPE       0.052145
     15 O1          19.8050    19.9570    36.9130 O.3        1 CPE      -0.599431
     16 H1          20.2020    20.8000    37.2780 H          1 CPE       0.397581
@<TRIPOS>BOND
     1    10    12 1   
     2    10    15 1   
     3     7    10 1   
     4     4     7 1   
     5     1     4 1   
     6     1    12 1   
     7    15    16 1   
     8    12    13 1   
     9    12    14 1   
    10    10    11 1   
    11     7     8 1   
    12     7     9 1   
    13     4     5 1   
    14     4     6 1   
    15     1     2 1   
    16     1     3 1   
@<TRIPOS>SUBSTRUCTURE
     1 CPE         1 TEMP              0 ****  ****    0 ROOT
