@<TRIPOS>MOLECULE
Cpptraj generated mol2 file.
  147   154     7     0     0
SMALL
USER_CHARGES


@<TRIPOS>ATOM
      1 C1         23.7470   15.0660   33.9560 c3         1 MGO      0.304529
      2 H1         24.8040   14.7620   34.0860 h2         1 MGO      0.090782
      3 O1         23.6330   16.4980   33.6550 os         1 MGO     -0.453070
      4 C2         23.1640   14.2700   32.7940 c3         1 MGO      0.092199
      5 H2         23.2930   13.2000   32.9770 h1         1 MGO      0.102926
      6 O2         23.8330   14.6330   31.5740 oh         1 MGO     -0.586639
      7 HO2        24.3000   15.4770   31.6890 ho         1 MGO      0.425065
      8 C3         21.6960   14.5920   32.6040 c3         1 MGO      0.093211
      9 H3         21.5850   15.6390   32.3090 h1         1 MGO      0.064468
     10 O3         21.2120   13.7170   31.5710 oh         1 MGO     -0.592567
     11 HO3        21.9260   13.6470   30.9210 ho         1 MGO      0.421017
     12 C4         20.9300   14.3250   33.8910 c3         1 MGO      0.127621
     13 H4         20.9520   13.2530   34.1030 h1         1 MGO      0.080661
     14 C5         21.5400   15.0950   35.0710 c3         1 MGO      0.104343
     15 H5         21.4660   16.1620   34.8490 h1         1 MGO      0.068516
     16 O5         22.9820   14.7490   35.1800 os         1 MGO     -0.427383
     17 C6         20.8760   14.8980   36.4420 c3         1 MGO      0.141081
     18 H61        20.0790   15.6340   36.5740 h1         1 MGO      0.057384
     19 H62        21.6090   15.0450   37.2380 h1         1 MGO      0.057384
     20 O6         20.3080   13.5870   36.5470 oh         1 MGO     -0.593555
     21 HO6        19.3970   13.6250   36.2250 ho         1 MGO      0.422027
     22 C1         26.0460   19.9130   33.9560 c3         2 MGO      0.304529
     23 H1         26.9430   20.5510   34.0850 h2         2 MGO      0.090782
     24 O1         24.8530   20.7180   33.6530 os         2 MGO     -0.453070
     25 C2         26.3040   18.9620   32.7920 c3         2 MGO      0.092199
     26 H2         27.2210   18.3950   32.9770 h1         2 MGO      0.102926
     27 O2         26.4360   19.7110   31.5730 oh         2 MGO     -0.586639
     28 HO2        26.0690   20.6020   31.6890 ho         2 MGO      0.425065
     29 C3         25.1360   18.0150   32.6040 c3         2 MGO      0.093211
     30 H3         24.2490   18.5810   32.3090 h1         2 MGO      0.064468
     31 O3         25.5180   17.0920   31.5720 oh         2 MGO     -0.592567
     32 HO3        26.0190   17.6060   30.9200 ho         2 MGO      0.421017
     33 C4         24.8680   17.2500   33.8890 c3         2 MGO      0.127621
     34 H4         25.7200   16.5990   34.1030 h1         2 MGO      0.080661
     35 C5         24.6470   18.2080   35.0710 c3         2 MGO      0.104343
     36 H5         23.7670   18.8140   34.8480 h1         2 MGO      0.068516
     37 O5         25.8170   19.1190   35.1790 os         2 MGO     -0.427383
     38 C6         24.3870   17.5650   36.4410 c3         2 MGO      0.141081
     39 H61        23.3160   17.4020   36.5750 h1         2 MGO      0.057384
     40 H62        24.7290   18.2300   37.2390 h1         2 MGO      0.057384
     41 O6         25.0590   16.3040   36.5470 oh         2 MGO     -0.593555
     42 HO6        24.4610   15.6160   36.2260 ho         2 MGO      0.422027
     43 C1         23.6890   24.7330   33.9560 c3         3 MGO      0.304529
     44 H1         23.7490   25.8320   34.0840 h2         3 MGO      0.090782
     45 O1         22.3170   24.3020   33.6530 os         3 MGO     -0.453070
     46 C2         24.5930   24.3420   32.7910 c3         3 MGO      0.092199
     47 H2         25.6070   24.7060   32.9750 h1         3 MGO      0.102926
     48 O2         24.0900   24.9130   31.5720 oh         3 MGO     -0.586639
     49 HO2        23.1630   25.1810   31.6880 ho         3 MGO      0.425065
     50 C3         24.6060   22.8380   32.6030 c3         3 MGO      0.093211
     51 H3         23.6100   22.4970   32.3080 h1         3 MGO      0.064468
     52 O3         25.5650   22.5630   31.5700 oh         3 MGO     -0.592567
     53 HO3        25.4750   23.2720   30.9190 ho         3 MGO      0.421017
     54 C4         25.0370   22.1520   33.8900 c3         3 MGO      0.127621
     55 H4         26.0780   22.4130   34.1000 h1         3 MGO      0.080661
     56 C5         24.1510   22.5760   35.0700 c3         3 MGO      0.104343
     57 H5         23.1270   22.2670   34.8480 h1         3 MGO      0.068516
     58 O5         24.1670   24.0610   35.1800 os         3 MGO     -0.427383
     59 C6         24.4910   21.9730   36.4410 c3         3 MGO      0.141081
     60 H61        23.9510   21.0330   36.5730 h1         3 MGO      0.057384
     61 H62        24.1850   22.6550   37.2390 h1         3 MGO      0.057384
     62 O6         25.8970   21.7110   36.5460 oh         3 MGO     -0.593555
     63 HO6        26.0610   20.8160   36.2250 ho         3 MGO      0.422027
     64 C1         18.4490   25.8960   33.9570 c3         4 MGO      0.304529
     65 H1         17.6290   26.6280   34.0860 h2         4 MGO      0.090782
     66 O1         17.9330   24.5540   33.6540 os         4 MGO     -0.453070
     67 C2         19.3210   26.3600   32.7930 c3         4 MGO      0.092199
     68 H2         19.6680   27.3800   32.9770 h1         4 MGO      0.102926
     69 O2         18.5590   26.3220   31.5730 oh         4 MGO     -0.586639
     70 HO2        17.7730   25.7650   31.6890 ho         4 MGO      0.425065
     71 C3         20.5030   25.4340   32.6040 c3         4 MGO      0.093211
     72 H3         20.1480   24.4400   32.3080 h1         4 MGO      0.064468
     73 O3         21.3180   26.0100   31.5720 oh         4 MGO     -0.592567
     74 HO3        20.7070   26.3830   30.9200 ho         4 MGO      0.421017
     75 C4         21.3090   25.3400   33.8890 c3         4 MGO      0.127621
     76 H4         21.7540   26.3150   34.1020 h1         4 MGO      0.080661
     77 C5         20.4250   24.9120   35.0710 c3         4 MGO      0.104343
     78 H5         20.0290   23.9190   34.8480 h1         4 MGO      0.068516
     79 O5         19.2750   25.8490   35.1800 os         4 MGO     -0.427383
     80 C6         21.1100   24.8020   36.4410 c3         4 MGO      0.141081
     81 H61        21.5070   23.7930   36.5730 h1         4 MGO      0.057384
     82 H62        20.3850   24.9860   37.2390 h1         4 MGO      0.057384
     83 O6         22.1900   25.7360   36.5460 oh         4 MGO     -0.593555
     84 HO6        22.9940   25.3070   36.2250 ho         4 MGO      0.422027
     85 C1         14.2750   22.5250   33.9570 c3         5 MGO      0.304529
     86 H1         13.1910   22.3400   34.0880 h2         5 MGO      0.090782
     87 O1         15.0010   21.2840   33.6540 os         5 MGO     -0.453070
     88 C2         14.4550   23.4940   32.7930 c3         5 MGO      0.092199
     89 H2         13.8740   24.4020   32.9790 h1         5 MGO      0.102926
     90 O2         14.0100   22.8770   31.5740 oh         5 MGO     -0.586639
     91 HO2        13.9550   21.9150   31.6890 ho         5 MGO      0.425065
     92 C3         15.9180   23.8420   32.6040 c3         5 MGO      0.093211
     93 H3         16.4720   22.9460   32.3100 h1         5 MGO      0.064468
     94 O3         15.9740   24.8390   31.5720 oh         5 MGO     -0.592567
     95 HO3        15.3010   24.5930   30.9210 ho         5 MGO      0.421017
     96 C4         16.4910   24.4150   33.8900 c3         5 MGO      0.127621
     97 H4         16.0070   25.3710   34.1040 h1         5 MGO      0.080661
     98 C5         16.2760   23.4550   35.0720 c3         5 MGO      0.104343
     99 H5         16.8060   22.5260   34.8480 h1         5 MGO      0.068516
    100 O5         14.8260   23.1410   35.1800 os         5 MGO     -0.427383
    101 C6         16.7900   23.9200   36.4430 c3         5 MGO      0.141081
    102 H61        17.8260   23.6040   36.5730 h1         5 MGO      0.057384
    103 H62        16.1930   23.4710   37.2390 h1         5 MGO      0.057384
    104 O6         16.7320   25.3500   36.5480 oh         5 MGO     -0.593555
    105 HO6        17.5680   25.7100   36.2260 ho         5 MGO      0.422027
    106 C1         14.3070   17.1600   33.9560 c3         6 MGO      0.304529
    107 H1         13.7760   16.1970   34.0850 h2         6 MGO      0.090782
    108 O1         15.7300   16.9530   33.6540 os         6 MGO     -0.453070
    109 C2         13.6620   17.9050   32.7920 c3         6 MGO      0.092199
    110 H2         12.5900   18.0170   32.9760 h1         6 MGO      0.102926
    111 O2         13.8680   17.1720   31.5730 oh         6 MGO     -0.586639
    112 HO2        14.5860   16.5280   31.6880 ho         6 MGO      0.425065
    113 C3         14.3030   19.2650   32.6040 c3         6 MGO      0.093211
    114 H3         15.3480   19.1390   32.3090 h1         6 MGO      0.064468
    115 O3         13.5580   19.9310   31.5710 oh         6 MGO     -0.592567
    116 HO3        13.3300   19.2510   30.9200 ho         6 MGO      0.421017
    117 C4         14.2130   20.0700   33.8900 c3         6 MGO      0.127621
    118 H4         13.1630   20.2880   34.1020 h1         6 MGO      0.080661
    119 C5         14.8280   19.3040   35.0700 c3         6 MGO      0.104343
    120 H5         15.8840   19.1400   34.8490 h1         6 MGO      0.068516
    121 O5         14.1700   17.9730   35.1800 os         6 MGO     -0.427383
    122 C6         14.7830   19.9940   36.4410 c3         6 MGO      0.141081
    123 H61        15.6770   20.6070   36.5740 h1         6 MGO      0.057384
    124 H62        14.7630   19.2470   37.2390 h1         6 MGO      0.057384
    125 O6         13.6300   20.8410   36.5470 oh         6 MGO     -0.593555
    126 HO6        13.8700   21.7190   36.2260 ho         6 MGO      0.422027
    127 C1         18.5240   13.8390   33.9570 c3         7 MGO      0.304529
    128 H1         18.9460   12.8240   34.0850 h2         7 MGO      0.090782
    129 O1         19.5710   14.8230   33.6540 os         7 MGO     -0.453070
    130 C2         17.5370   13.7990   32.7910 c3         7 MGO      0.092199
    131 H2         16.7820   13.0310   32.9770 h1         7 MGO      0.102926
    132 O2         18.2390   13.5040   31.5730 oh         7 MGO     -0.586639
    133 HO2        19.1900   13.6640   31.6890 ho         7 MGO      0.425065
    134 C3         16.8740   15.1480   32.6040 c3         7 MGO      0.093211
    135 H3         17.6240   15.8880   32.3090 h1         7 MGO      0.064468
    136 O3         15.8900   14.9810   31.5700 oh         7 MGO     -0.592567
    137 HO3        16.2790   14.3800   30.9200 ho         7 MGO      0.421017
    138 C4         16.1880   15.5810   33.8890 c3         7 MGO      0.127621
    139 H4         15.3650   14.8950   34.1020 h1         7 MGO      0.080661
    140 C5         17.1700   15.5830   35.0710 c3         7 MGO      0.104343
    141 H5         17.9580   16.3060   34.8480 h1         7 MGO      0.068516
    142 O5         17.7990   14.2390   35.1780 os         7 MGO     -0.427383
    143 C6         16.6010   15.9790   36.4410 c3         7 MGO      0.141081
    144 H61        16.6810   17.0600   36.5740 h1         7 MGO      0.057384
    145 H62        17.1740   15.4970   37.2380 h1         7 MGO      0.057384
    146 O6         15.2220   15.6050   36.5470 oh         7 MGO     -0.593555
    147 HO6        14.6840   16.3400   36.2240 ho         7 MGO      0.422027
@<TRIPOS>BOND
    1    17    20 1
    2    14    16 1
    3    14    17 1
    4    12    14 1
    5    12   129 1
    6     8    10 1
    7     8    12 1
    8     4     6 1
    9     4     8 1
   10     3    33 1
   11     1     3 1
   12     1     4 1
   13     1    16 1
   14    38    41 1
   15    35    37 1
   16    35    38 1
   17    33    35 1
   18    29    31 1
   19    29    33 1
   20    25    27 1
   21    25    29 1
   22    24    54 1
   23    22    24 1
   24    22    25 1
   25    22    37 1
   26    59    62 1
   27    56    58 1
   28    56    59 1
   29    54    56 1
   30    50    52 1
   31    50    54 1
   32    46    48 1
   33    46    50 1
   34    45    75 1
   35    43    45 1
   36    43    46 1
   37    43    58 1
   38    80    83 1
   39    77    79 1
   40    77    80 1
   41    75    77 1
   42    71    73 1
   43    71    75 1
   44    67    69 1
   45    67    71 1
   46    66    96 1
   47    64    66 1
   48    64    67 1
   49    64    79 1
   50   101   104 1
   51    98   100 1
   52    98   101 1
   53    96    98 1
   54    92    94 1
   55    92    96 1
   56    88    90 1
   57    88    92 1
   58    87   117 1
   59    85    87 1
   60    85    88 1
   61    85   100 1
   62   122   125 1
   63   119   121 1
   64   119   122 1
   65   117   119 1
   66   113   115 1
   67   113   117 1
   68   109   111 1
   69   109   113 1
   70   108   138 1
   71   106   108 1
   72   106   109 1
   73   106   121 1
   74   143   146 1
   75   140   142 1
   76   140   143 1
   77   138   140 1
   78   134   136 1
   79   134   138 1
   80   130   132 1
   81   130   134 1
   82   127   129 1
   83   127   130 1
   84   127   142 1
   85    20    21 1
   86    17    18 1
   87    17    19 1
   88    14    15 1
   89    12    13 1
   90    10    11 1
   91     8     9 1
   92     6     7 1
   93     4     5 1
   94     1     2 1
   95    41    42 1
   96    38    39 1
   97    38    40 1
   98    35    36 1
   99    33    34 1
  100    31    32 1
  101    29    30 1
  102    27    28 1
  103    25    26 1
  104    22    23 1
  105    62    63 1
  106    59    60 1
  107    59    61 1
  108    56    57 1
  109    54    55 1
  110    52    53 1
  111    50    51 1
  112    48    49 1
  113    46    47 1
  114    43    44 1
  115    83    84 1
  116    80    81 1
  117    80    82 1
  118    77    78 1
  119    75    76 1
  120    73    74 1
  121    71    72 1
  122    69    70 1
  123    67    68 1
  124    64    65 1
  125   104   105 1
  126   101   102 1
  127   101   103 1
  128    98    99 1
  129    96    97 1
  130    94    95 1
  131    92    93 1
  132    90    91 1
  133    88    89 1
  134    85    86 1
  135   125   126 1
  136   122   123 1
  137   122   124 1
  138   119   120 1
  139   117   118 1
  140   115   116 1
  141   113   114 1
  142   111   112 1
  143   109   110 1
  144   106   107 1
  145   146   147 1
  146   143   144 1
  147   143   145 1
  148   140   141 1
  149   138   139 1
  150   136   137 1
  151   134   135 1
  152   132   133 1
  153   130   131 1
  154   127   128 1
@<TRIPOS>SUBSTRUCTURE
      1 MGO               1 ****               0 ****  **** 
      2 MGO              22 ****               0 ****  **** 
      3 MGO              43 ****               0 ****  **** 
      4 MGO              64 ****               0 ****  **** 
      5 MGO              85 ****               0 ****  **** 
      6 MGO             106 ****               0 ****  **** 
      7 MGO             127 ****               0 ****  **** 
