@<TRIPOS>MOLECULE
Cpptraj
  147   154     1     0     0
SMALL
No Charge or Current Charge


@<TRIPOS>ATOM
      1 C1          25.3470    17.5680    32.8600 C.3        1 MGO       0.304529
      2 H1          26.4380    17.7070    32.9900 H          1 MGO       0.090782
      3 O1          24.6750    18.8380    32.5570 O.3        1 MGO      -0.453070
      4 C2          25.1260    16.6060    31.6960 C.3        1 MGO       0.092199
      5 H2          25.6680    15.6750    31.8810 H          1 MGO       0.102926
      6 O2          25.5980    17.2050    30.4770 O.3        1 MGO      -0.586639
      7 HO2         25.6930    18.1650    30.5920 H          1 MGO       0.425065
      8 C3          23.6510    16.3220    31.5070 C.3        1 MGO       0.093211
      9 H3          23.1350    17.2400    31.2120 H          1 MGO       0.064468
     10 O3          23.5530    15.3280    30.4740 O.3        1 MGO      -0.592567
     11 HO3         24.2350    15.5450    29.8240 H          1 MGO       0.421017
     12 C4          23.0530    15.7740    32.7930 C.3        1 MGO       0.127621
     13 H4          23.4960    14.7980    33.0060 H          1 MGO       0.080661
     14 C5          23.3090    16.7230    33.9750 C.3        1 MGO       0.104343
     15 H5          22.8190    17.6740    33.7520 H          1 MGO       0.068516
     16 O5          24.7700    16.9750    34.0830 O.3        1 MGO      -0.427383
     17 C6          22.7760    16.2790    35.3450 C.3        1 MGO       0.141081
     18 H61         21.7540    16.6410    35.4760 H          1 MGO       0.057384
     19 H62         23.3910    16.7030    36.1420 H          1 MGO       0.057384
     20 O6          22.7730    14.8500    35.4500 O.3        1 MGO      -0.593555
     21 HO6         21.9210    14.5260    35.1290 H          1 MGO       0.422027
     22 C1          25.5420    22.9290    32.8590 C.3        2 MGO       0.304529
     23 H1          26.1140    23.8700    32.9880 H          2 MGO       0.090782
     24 O1          24.1300    23.1970    32.5570 O.3        2 MGO      -0.453070
     25 C2          26.1560    22.1570    31.6950 C.3        2 MGO       0.092199
     26 H2          27.2230    22.0000    31.8800 H          2 MGO       0.102926
     27 O2          25.9810    22.8980    30.4760 O.3        2 MGO      -0.586639
     28 HO2         25.2910    23.5710    30.5910 H          2 MGO       0.425065
     29 C3          25.4580    20.8260    31.5070 C.3        2 MGO       0.093211
     30 H3          24.4180    20.9950    31.2120 H          2 MGO       0.064468
     31 O3          26.1740    20.1300    30.4740 O.3        2 MGO      -0.592567
     32 HO3         26.4300    20.7980    29.8230 H          2 MGO       0.421017
     33 C4          25.5130    20.0180    32.7930 C.3        2 MGO       0.127621
     34 H4          26.5530    19.7560    33.0050 H          2 MGO       0.080661
     35 C5          24.9320    20.8100    33.9750 C.3        2 MGO       0.104343
     36 H5          23.8840    21.0190    33.7520 H          2 MGO       0.068516
     37 O5          25.6460    22.1100    34.0830 O.3        2 MGO      -0.427383
     38 C6          24.9470    20.1170    35.3440 C.3        2 MGO       0.141081
     39 H61         24.0270    19.5430    35.4770 H          2 MGO       0.057384
     40 H62         24.9990    20.8630    36.1420 H          2 MGO       0.057384
     41 O6          26.0630    19.2230    35.4500 O.3        2 MGO      -0.593555
     42 HO6         25.7850    18.3550    35.1290 H          2 MGO       0.422027
     43 C1          21.4720    26.4260    32.8590 C.3        3 MGO       0.304529
     44 H1          21.0930    27.4580    32.9880 H          3 MGO       0.090782
     45 O1          20.3830    25.4870    32.5570 O.3        3 MGO      -0.453070
     46 C2          22.4570    26.4230    31.6940 C.3        3 MGO       0.092199
     47 H2          23.2460    27.1590    31.8780 H          3 MGO       0.102926
     48 O2          21.7690    26.7490    30.4760 O.3        3 MGO      -0.586639
     49 HO2         20.8130    26.6290    30.5910 H          3 MGO       0.425065
     50 C3          23.0630    25.0480    31.5060 C.3        3 MGO       0.093211
     51 H3          22.2830    24.3400    31.2120 H          3 MGO       0.064468
     52 O3          24.0540    25.1730    30.4730 O.3        3 MGO      -0.592567
     53 HO3         23.6900    25.7900    29.8220 H          3 MGO       0.421017
     54 C4          23.7310    24.5870    32.7920 C.3        3 MGO       0.127621
     55 H4          24.5830    25.2380    33.0040 H          3 MGO       0.080661
     56 C5          22.7500    24.6270    33.9740 C.3        3 MGO       0.104343
     57 H5          21.9320    23.9380    33.7510 H          3 MGO       0.068516
     58 O5          22.1770    25.9960    34.0820 O.3        3 MGO      -0.427383
     59 C6          23.3000    24.2070    35.3440 C.3        3 MGO       0.141081
     60 H61         23.1760    23.1310    35.4760 H          3 MGO       0.057384
     61 H62         22.7500    24.7130    36.1420 H          3 MGO       0.057384
     62 O6          24.6960    24.5220    35.4500 O.3        3 MGO      -0.593555
     63 HO6         25.2000    23.7640    35.1280 H          3 MGO       0.422027
     64 C1          16.2000    25.4220    32.8600 C.3        4 MGO       0.304529
     65 H1          15.1570    25.7710    32.9890 H          4 MGO       0.090782
     66 O1          16.2560    23.9860    32.5570 O.3        4 MGO      -0.453070
     67 C2          16.8170    26.1920    31.6960 C.3        4 MGO       0.092199
     68 H2          16.7330    27.2670    31.8810 H          4 MGO       0.102926
     69 O2          16.1330    25.8570    30.4760 O.3        4 MGO      -0.586639
     70 HO2         15.6300    25.0340    30.5930 H          4 MGO       0.425065
     71 C3          18.2690    25.8080    31.5070 C.3        4 MGO       0.093211
     72 H3          18.3360    24.7580    31.2120 H          4 MGO       0.064468
     73 O3          18.7890    26.6610    30.4740 O.3        4 MGO      -0.592567
     74 HO3         18.0800    26.7620    29.8230 H          4 MGO       0.421017
     75 C4          19.0470    26.0420    32.7920 C.3        4 MGO       0.127621
     76 H4          19.0700    27.1140    33.0050 H          4 MGO       0.080661
     77 C5          18.4040    25.2990    33.9740 C.3        4 MGO       0.104343
     78 H5          18.4330    24.2300    33.7510 H          4 MGO       0.068516
     79 O5          16.9770    25.7060    34.0820 O.3        4 MGO      -0.427383
     80 C6          19.0760    25.4690    35.3440 C.3        4 MGO       0.141081
     81 H61         19.8410    24.6990    35.4770 H          4 MGO       0.057384
     82 H62         18.3380    25.3530    36.1420 H          4 MGO       0.057384
     83 O6          19.6990    26.7550    35.4500 O.3        4 MGO      -0.593555
     84 HO6         20.6070    26.6780    35.1270 H          4 MGO       0.422027
     85 C1          13.6980    20.6760    32.8600 C.3        5 MGO       0.304529
     86 H1          12.7760    20.0770    32.9900 H          5 MGO       0.090782
     87 O1          14.8550    19.8240    32.5570 O.3        5 MGO      -0.453070
     88 C2          13.4800    21.6380    31.6960 C.3        5 MGO       0.092199
     89 H2          12.5880    22.2420    31.8820 H          5 MGO       0.102926
     90 O2          13.3160    20.8950    30.4780 O.3        5 MGO      -0.586639
     91 HO2         13.6460    19.9890    30.5920 H          5 MGO       0.425065
     92 C3          14.6860    22.5350    31.5080 C.3        5 MGO       0.093211
     93 H3          15.5500    21.9320    31.2120 H          5 MGO       0.064468
     94 O3          14.3440    23.4730    30.4750 O.3        5 MGO      -0.592567
     95 HO3         13.8230    22.9810    29.8240 H          5 MGO       0.421017
     96 C4          14.9870    23.2870    32.7940 C.3        5 MGO       0.127621
     97 H4          14.1650    23.9740    33.0070 H          5 MGO       0.080661
     98 C5          15.1690    22.3210    33.9750 C.3        5 MGO       0.104343
     99 H5          16.0220    21.6770    33.7520 H          5 MGO       0.068516
    100 O5          13.9610    21.4600    34.0840 O.3        5 MGO      -0.427383
    101 C6          15.4560    22.9520    35.3450 C.3        5 MGO       0.141081
    102 H61         16.5330    23.0700    35.4770 H          5 MGO       0.057384
    103 H62         15.0860    22.3030    36.1420 H          5 MGO       0.057384
    104 O6          14.8380    24.2420    35.4510 O.3        5 MGO      -0.593555
    105 HO6         15.4650    24.9030    35.1290 H          5 MGO       0.422027
    106 C1          15.8490    15.7600    32.8600 C.3        6 MGO       0.304529
    107 H1          15.7410    14.6650    32.9880 H          6 MGO       0.090782
    108 O1          17.2370    16.1330    32.5570 O.3        6 MGO      -0.453070
    109 C2          14.9610    16.1900    31.6950 C.3        6 MGO       0.092199
    110 H2          13.9320    15.8690    31.8800 H          6 MGO       0.102926
    111 O2          15.4400    15.5980    30.4760 O.3        6 MGO      -0.586639
    112 HO2         16.3540    15.2910    30.5910 H          6 MGO       0.425065
    113 C3          15.0120    17.6920    31.5070 C.3        6 MGO       0.093211
    114 H3          16.0220    17.9900    31.2120 H          6 MGO       0.064468
    115 O3          14.0660    18.0090    30.4740 O.3        6 MGO      -0.592567
    116 HO3         14.1250    17.2960    29.8230 H          6 MGO       0.421017
    117 C4          14.6110    18.3960    32.7930 C.3        6 MGO       0.127621
    118 H4          13.5610    18.1810    33.0050 H          6 MGO       0.080661
    119 C5          15.4790    17.9350    33.9740 C.3        6 MGO       0.104343
    120 H5          16.5140    18.2010    33.7520 H          6 MGO       0.068516
    121 O5          15.4000    16.4530    34.0820 O.3        6 MGO      -0.427383
    122 C6          15.1640    18.5520    35.3440 C.3        6 MGO       0.141081
    123 H61         15.7440    19.4680    35.4770 H          6 MGO       0.057384
    124 H62         15.4410    17.8570    36.1420 H          6 MGO       0.057384
    125 O6          13.7710    18.8740    35.4500 O.3        6 MGO      -0.593555
    126 HO6         13.6450    19.7760    35.1290 H          6 MGO       0.422027
    127 C1          21.0340    14.3770    32.8590 C.3        7 MGO       0.304529
    128 H1          21.8230    13.6110    32.9880 H          7 MGO       0.090782
    129 O1          21.6070    15.6950    32.5570 O.3        7 MGO      -0.453070
    130 C2          20.1440    13.9500    31.6940 C.3        7 MGO       0.092199
    131 H2          19.7530    12.9460    31.8800 H          7 MGO       0.102926
    132 O2          20.9050    13.9570    30.4760 O.3        7 MGO      -0.586639
    133 HO2         21.7150    14.4790    30.5920 H          7 MGO       0.425065
    134 C3          19.0020    14.9270    31.5070 C.3        7 MGO       0.093211
    135 H3          19.3980    15.9030    31.2110 H          7 MGO       0.064468
    136 O3          18.1640    14.3850    30.4730 O.3        7 MGO      -0.592567
    137 HO3         18.7580    13.9870    29.8230 H          7 MGO       0.421017
    138 C4          18.2000    15.0530    32.7930 C.3        7 MGO       0.127621
    139 H4          17.7140    14.0980    33.0050 H          7 MGO       0.080661
    140 C5          19.1020    15.4440    33.9740 C.3        7 MGO       0.104343
    141 H5          19.5400    16.4200    33.7510 H          7 MGO       0.068516
    142 O5          20.2100    14.4580    34.0820 O.3        7 MGO      -0.427383
    143 C6          18.4230    15.5830    35.3440 C.3        7 MGO       0.141081
    144 H61         18.0680    16.6070    35.4770 H          7 MGO       0.057384
    145 H62         19.1380    15.3660    36.1410 H          7 MGO       0.057384
    146 O6          17.3030    14.6930    35.4500 O.3        7 MGO      -0.593555
    147 HO6         16.5190    15.1570    35.1280 H          7 MGO       0.422027
@<TRIPOS>BOND
     1    17    20 1   
     2    14    16 1   
     3    14    17 1   
     4    12    14 1   
     5    12   129 1   
     6     8    10 1   
     7     8    12 1   
     8     4     6 1   
     9     4     8 1   
    10     3    33 1   
    11     1     3 1   
    12     1     4 1   
    13     1    16 1   
    14    38    41 1   
    15    35    37 1   
    16    35    38 1   
    17    33    35 1   
    18    29    31 1   
    19    29    33 1   
    20    25    27 1   
    21    25    29 1   
    22    24    54 1   
    23    22    24 1   
    24    22    25 1   
    25    22    37 1   
    26    59    62 1   
    27    56    58 1   
    28    56    59 1   
    29    54    56 1   
    30    50    52 1   
    31    50    54 1   
    32    46    48 1   
    33    46    50 1   
    34    45    75 1   
    35    43    45 1   
    36    43    46 1   
    37    43    58 1   
    38    80    83 1   
    39    77    79 1   
    40    77    80 1   
    41    75    77 1   
    42    71    73 1   
    43    71    75 1   
    44    67    69 1   
    45    67    71 1   
    46    66    96 1   
    47    64    66 1   
    48    64    67 1   
    49    64    79 1   
    50   101   104 1   
    51    98   100 1   
    52    98   101 1   
    53    96    98 1   
    54    92    94 1   
    55    92    96 1   
    56    88    90 1   
    57    88    92 1   
    58    87   117 1   
    59    85    87 1   
    60    85    88 1   
    61    85   100 1   
    62   122   125 1   
    63   119   121 1   
    64   119   122 1   
    65   117   119 1   
    66   113   115 1   
    67   113   117 1   
    68   109   111 1   
    69   109   113 1   
    70   108   138 1   
    71   106   108 1   
    72   106   109 1   
    73   106   121 1   
    74   143   146 1   
    75   140   142 1   
    76   140   143 1   
    77   138   140 1   
    78   134   136 1   
    79   134   138 1   
    80   130   132 1   
    81   130   134 1   
    82   127   129 1   
    83   127   130 1   
    84   127   142 1   
    85    20    21 1   
    86    17    18 1   
    87    17    19 1   
    88    14    15 1   
    89    12    13 1   
    90    10    11 1   
    91     8     9 1   
    92     6     7 1   
    93     4     5 1   
    94     1     2 1   
    95    41    42 1   
    96    38    39 1   
    97    38    40 1   
    98    35    36 1   
    99    33    34 1   
   100    31    32 1   
   101    29    30 1   
   102    27    28 1   
   103    25    26 1   
   104    22    23 1   
   105    62    63 1   
   106    59    60 1   
   107    59    61 1   
   108    56    57 1   
   109    54    55 1   
   110    52    53 1   
   111    50    51 1   
   112    48    49 1   
   113    46    47 1   
   114    43    44 1   
   115    83    84 1   
   116    80    81 1   
   117    80    82 1   
   118    77    78 1   
   119    75    76 1   
   120    73    74 1   
   121    71    72 1   
   122    69    70 1   
   123    67    68 1   
   124    64    65 1   
   125   104   105 1   
   126   101   102 1   
   127   101   103 1   
   128    98    99 1   
   129    96    97 1   
   130    94    95 1   
   131    92    93 1   
   132    90    91 1   
   133    88    89 1   
   134    85    86 1   
   135   125   126 1   
   136   122   123 1   
   137   122   124 1   
   138   119   120 1   
   139   117   118 1   
   140   115   116 1   
   141   113   114 1   
   142   111   112 1   
   143   109   110 1   
   144   106   107 1   
   145   146   147 1   
   146   143   144 1   
   147   143   145 1   
   148   140   141 1   
   149   138   139 1   
   150   136   137 1   
   151   134   135 1   
   152   132   133 1   
   153   130   131 1   
   154   127   128 1   
@<TRIPOS>SUBSTRUCTURE
     1 MGO         1 TEMP              0 ****  ****    0 ROOT
