@<TRIPOS>MOLECULE
Cpptraj
   23    23     1     0     0
SMALL
No Charge or Current Charge


@<TRIPOS>ATOM
      1 C1          21.2850    20.9470    36.4660 C.3        1 PB3      -0.076083
      2 H1          21.6440    21.8860    36.0390 H          1 PB3       0.028706
      3 H2          21.2490    21.0650    37.5510 H          1 PB3       0.028706
      4 H3          22.0100    20.1640    36.2310 H          1 PB3       0.028706
      5 C2          19.8870    20.6000    35.9000 C.3        1 PB3      -0.027394
      6 H4          19.2020    21.3850    36.2310 H          1 PB3       0.083719
      7 C3          19.3560    19.2560    36.4590 C.3        1 PB3      -0.190357
      8 H5          18.4360    18.9890    35.9270 H          1 PB3       0.026206
      9 H6          20.0750    18.4560    36.2460 H          1 PB3       0.026206
     10 C4          19.0630    19.3320    37.9580 C.2        1 PB3       0.907803
     11 O1          18.0930    19.9600    38.3520 O.co2      1 PB3      -0.849610
     12 O2          19.7720    18.7290    38.7460 O.co2      1 PB3      -0.849610
     13 C5          19.8920    20.5950    34.3720 C.ar       1 PB3      -0.037292
     14 C6          19.0960    21.5030    33.6640 C.ar       1 PB3      -0.132970
     15 H7          18.4710    22.2130    34.2010 H          1 PB3       0.135030
     16 C7          19.0930    21.5050    32.2690 C.ar       1 PB3      -0.139969
     17 H8          18.4690    22.2140    31.7270 H          1 PB3       0.112525
     18 C8          19.8870    20.6000    31.5690 C.ar       1 PB3      -0.158964
     19 H9          19.8850    20.6010    30.4790 H          1 PB3       0.110025
     20 C9          20.6840    19.6930    32.2640 C.ar       1 PB3      -0.139969
     21 H10         21.3060    18.9840    31.7170 H          1 PB3       0.112525
     22 C10         20.6860    19.6920    33.6580 C.ar       1 PB3      -0.132970
     23 H11         21.3130    18.9790    34.1920 H          1 PB3       0.135031
@<TRIPOS>BOND
     1    20    22 ar  
     2    18    20 ar  
     3    16    18 ar  
     4    14    16 ar  
     5    13    14 ar  
     6    13    22 ar  
     7    10    11 1   
     8    10    12 1   
     9     7    10 1   
    10     5     7 1   
    11     5    13 1   
    12     1     5 1   
    13    22    23 1   
    14    20    21 1   
    15    18    19 1   
    16    16    17 1   
    17    14    15 1   
    18     7     8 1   
    19     7     9 1   
    20     5     6 1   
    21     1     2 1   
    22     1     3 1   
    23     1     4 1   
@<TRIPOS>SUBSTRUCTURE
     1 PB3         1 TEMP              0 ****  ****    0 ROOT
