@<TRIPOS>MOLECULE
Cpptraj generated mol2 file.
   23    23     1     0     0
SMALL
USER_CHARGES


@<TRIPOS>ATOM
      1 C1         21.2850   20.9470   36.4660 c3         1 PB3     -0.076083
      2 H1         21.6440   21.8860   36.0390 hc         1 PB3      0.028706
      3 H2         21.2490   21.0650   37.5510 hc         1 PB3      0.028706
      4 H3         22.0100   20.1640   36.2310 hc         1 PB3      0.028706
      5 C2         19.8870   20.6000   35.9000 c3         1 PB3     -0.027394
      6 H4         19.2020   21.3850   36.2310 hc         1 PB3      0.083719
      7 C3         19.3560   19.2560   36.4590 c3         1 PB3     -0.190357
      8 H5         18.4360   18.9890   35.9270 hc         1 PB3      0.026206
      9 H6         20.0750   18.4560   36.2460 hc         1 PB3      0.026206
     10 C4         19.0630   19.3320   37.9580 c          1 PB3      0.907803
     11 O1         18.0930   19.9600   38.3520 o          1 PB3     -0.849610
     12 O2         19.7720   18.7290   38.7460 o          1 PB3     -0.849610
     13 C5         19.8920   20.5950   34.3720 ca         1 PB3     -0.037292
     14 C6         19.0960   21.5030   33.6640 ca         1 PB3     -0.132970
     15 H7         18.4710   22.2130   34.2010 ha         1 PB3      0.135030
     16 C7         19.0930   21.5050   32.2690 ca         1 PB3     -0.139969
     17 H8         18.4690   22.2140   31.7270 ha         1 PB3      0.112525
     18 C8         19.8870   20.6000   31.5690 ca         1 PB3     -0.158964
     19 H9         19.8850   20.6010   30.4790 ha         1 PB3      0.110025
     20 C9         20.6840   19.6930   32.2640 ca         1 PB3     -0.139969
     21 H10        21.3060   18.9840   31.7170 ha         1 PB3      0.112525
     22 C10        20.6860   19.6920   33.6580 ca         1 PB3     -0.132970
     23 H11        21.3130   18.9790   34.1920 ha         1 PB3      0.135031
@<TRIPOS>BOND
    1    20    22 1
    2    18    20 1
    3    16    18 1
    4    14    16 1
    5    13    14 1
    6    13    22 1
    7    10    11 1
    8    10    12 1
    9     7    10 1
   10     5     7 1
   11     5    13 1
   12     1     5 1
   13    22    23 1
   14    20    21 1
   15    18    19 1
   16    16    17 1
   17    14    15 1
   18     7     8 1
   19     7     9 1
   20     5     6 1
   21     1     2 1
   22     1     3 1
   23     1     4 1
@<TRIPOS>SUBSTRUCTURE
      1 PB3               1 ****               0 ****  **** 
