@<TRIPOS>MOLECULE
Cpptraj generated mol2 file.
   25    25     1     0     0
SMALL
USER_CHARGES


@<TRIPOS>ATOM
      1 C1         18.5400   19.5010   33.3670 c3         1 COC     -0.075433
      2 H2         17.7140   19.2280   34.0240 hc         1 COC      0.040182
      3 H3         18.1510   19.3710   32.3540 hc         1 COC      0.040182
      4 C2         19.7170   18.5110   33.5310 c3         1 COC     -0.071931
      5 H4         19.3410   17.5150   33.2790 hc         1 COC      0.036184
      6 H5         20.4900   18.7430   32.7940 hc         1 COC      0.036184
      7 C3         20.3720   18.4250   34.9310 c3         1 COC     -0.071431
      8 H6         21.1120   19.2160   35.0620 hc         1 COC      0.038183
      9 H7         20.9480   17.4950   34.9550 hc         1 COC      0.038183
     10 C4         19.3780   18.3990   36.1210 c3         1 COC     -0.089939
     11 H8         18.3970   18.0400   35.8090 hc         1 COC      0.049928
     12 H9         19.7530   17.6560   36.8320 hc         1 COC      0.049928
     13 C5         19.2650   19.7470   36.8830 c3         1 COC      0.145037
     14 H10        20.2720   20.0790   37.1540 h1         1 COC      0.028688
     15 C6         18.5530   20.8960   36.1180 c3         1 COC     -0.089939
     16 H11        17.5510   20.5940   35.8050 hc         1 COC      0.049928
     17 H12        18.4100   21.7180   36.8240 hc         1 COC      0.049928
     18 C7         19.3670   21.4630   34.9280 c3         1 COC     -0.071431
     19 H13        20.4310   21.2690   35.0590 hc         1 COC      0.038183
     20 H14        19.2760   22.5520   34.9460 hc         1 COC      0.038183
     21 C8         18.8920   20.9990   33.5270 c3         1 COC     -0.071931
     22 H15        19.6510   21.2720   32.7900 hc         1 COC      0.036184
     23 H16        17.9990   21.5710   33.2730 hc         1 COC      0.036184
     24 O1         18.5400   19.5010   38.0980 oh         1 COC     -0.606064
     25 H1         18.6160   20.3190   38.6700 ho         1 COC      0.396830
@<TRIPOS>BOND
    1    18    21 1
    2    15    18 1
    3    13    15 1
    4    13    24 1
    5    10    13 1
    6     7    10 1
    7     4     7 1
    8     1     4 1
    9     1    21 1
   10    24    25 1
   11    21    22 1
   12    21    23 1
   13    18    19 1
   14    18    20 1
   15    15    16 1
   16    15    17 1
   17    13    14 1
   18    10    11 1
   19    10    12 1
   20     7     8 1
   21     7     9 1
   22     4     5 1
   23     4     6 1
   24     1     2 1
   25     1     3 1
@<TRIPOS>SUBSTRUCTURE
      1 COC               1 ****               0 ****  **** 
