@<TRIPOS>MOLECULE
Cpptraj generated mol2 file.
  126   132     6     0     0
SMALL
USER_CHARGES


@<TRIPOS>ATOM
      1 C1         23.9950   18.7210   31.0800 c3         1 MGO      0.304529
      2 H1         24.9770   19.2190   31.1970 h2         1 MGO      0.090782
      3 O1         22.9460   19.6830   30.7140 os         1 MGO     -0.453070
      4 C2         24.1030   17.6890   29.9630 c3         1 MGO      0.092199
      5 H2         24.9000   16.9730   30.1920 h1         1 MGO      0.102926
      6 O2         24.3940   18.3620   28.7270 oh         1 MGO     -0.586639
      7 HO2        24.1510   19.2970   28.8020 ho         1 MGO      0.425065
      8 C3         22.7840   16.9690   29.7770 c3         1 MGO      0.093211
      9 H3         22.0320   17.6820   29.4260 h1         1 MGO      0.064468
     10 O3         23.0020   15.9460   28.7930 oh         1 MGO     -0.592567
     11 HO3        23.6070   16.3190   28.1370 ho         1 MGO      0.421017
     12 C4         22.3190   16.3290   31.0770 c3         1 MGO      0.127621
     13 H4         22.9760   15.4880   31.3190 h1         1 MGO      0.080661
     14 C5         22.3040   17.3410   32.2370 c3         1 MGO      0.104343
     15 H5         21.5540   18.0980   32.0000 h1         1 MGO      0.068516
     16 O5         23.6240   18.0180   32.3220 os         1 MGO     -0.427383
     17 C6         21.9370   16.8070   33.6290 c3         1 MGO      0.141081
     18 H61        20.8610   16.9100   33.7910 h1         1 MGO      0.057384
     19 H62        22.4500   17.3830   34.4020 h1         1 MGO      0.057384
     20 O6         22.2860   15.4220   33.7530 oh         1 MGO     -0.593555
     21 HO6        21.5290   14.8950   33.4640 ho         1 MGO      0.422027
     22 C1         22.0440   23.7300   31.0480 c3         2 MGO      0.304529
     23 H1         22.1060   24.8290   31.1760 h2         2 MGO      0.090782
     24 O1         20.6800   23.3070   30.7090 os         2 MGO     -0.453070
     25 C2         22.9660   23.3220   29.9050 c3         2 MGO      0.092199
     26 H2         23.9880   23.6510   30.1140 h1         2 MGO      0.102926
     27 O2         22.4990   23.9220   28.6850 oh         2 MGO     -0.586639
     28 HO2        21.5710   24.1790   28.7840 ho         2 MGO      0.425065
     29 C3         22.9240   21.8210   29.7040 c3         2 MGO      0.093211
     30 H3         21.9240   21.5290   29.3730 h1         2 MGO      0.064468
     31 O3         23.8980   21.5080   28.6930 oh         2 MGO     -0.592567
     32 HO3        23.8610   22.2270   28.0450 ho         2 MGO      0.421017
     33 C4         23.2770   21.0830   30.9880 c3         2 MGO      0.127621
     34 H4         24.3380   21.2300   31.2060 h1         2 MGO      0.080661
     35 C5         22.4200   21.5630   32.1740 c3         2 MGO      0.104343
     36 H5         21.3830   21.2960   31.9570 h1         2 MGO      0.068516
     37 O5         22.4940   23.0460   32.2730 os         2 MGO     -0.427383
     38 C6         22.7310   20.9630   33.5530 c3         2 MGO      0.141081
     39 H61        22.1090   20.0820   33.7190 h1         2 MGO      0.057384
     40 H62        22.5070   21.6880   34.3370 h1         2 MGO      0.057384
     41 O6         24.1070   20.5710   33.6400 oh         2 MGO     -0.593555
     42 HO6        24.1770   19.6560   33.3390 ho         2 MGO      0.422027
     43 C1         16.7310   24.5460   31.1460 c3         3 MGO      0.304529
     44 H1         15.8150   25.1490   31.3040 h2         3 MGO      0.090782
     45 O1         16.4080   23.1560   30.8000 os         3 MGO     -0.453070
     46 C2         17.5190   25.1530   29.9920 c3         3 MGO      0.092199
     47 H2         17.7530   26.2000   30.2080 h1         3 MGO      0.102926
     48 O2         16.7390   25.0650   28.7890 oh         3 MGO     -0.586639
     49 HO2        16.0540   24.3860   28.8970 ho         3 MGO      0.425065
     50 C3         18.7950   24.3700   29.7530 c3         3 MGO      0.093211
     51 H3         18.5390   23.3610   29.4170 h1         3 MGO      0.064468
     52 O3         19.5270   25.0660   28.7330 oh         3 MGO     -0.592567
     53 HO3        18.8730   25.4000   28.1050 ho         3 MGO      0.421017
     54 C4         19.6390   24.2910   31.0170 c3         3 MGO      0.127621
     55 H4         20.0470   25.2800   31.2380 h1         3 MGO      0.080661
     56 C5         18.8200   23.7750   32.2170 c3         3 MGO      0.104343
     57 H5         18.5290   22.7470   31.9960 h1         3 MGO      0.068516
     58 O5         17.5770   24.5820   32.3540 os         3 MGO     -0.427383
     59 C6         19.5280   23.7300   33.5790 c3         3 MGO      0.141081
     60 H61        19.9820   22.7470   33.7240 h1         3 MGO      0.057384
     61 H62        18.8060   23.8900   34.3820 h1         3 MGO      0.057384
     62 O6         20.5570   24.7250   33.6540 oh         3 MGO     -0.593555
     63 HO6        21.3770   24.3310   33.3300 ho         3 MGO      0.422027
     64 C1         13.3690   20.3550   31.2780 c3         4 MGO      0.304529
     65 H1         12.3930   19.8600   31.4510 h2         4 MGO      0.090782
     66 O1         14.4020   19.3820   30.8960 os         4 MGO     -0.453070
     67 C2         13.2110   21.3540   30.1370 c3         4 MGO      0.092199
     68 H2         12.4260   22.0760   30.3790 h1         4 MGO      0.102926
     69 O2         12.8710   20.6460   28.9340 oh         4 MGO     -0.586639
     70 HO2        13.1190   19.7120   29.0260 ho         4 MGO      0.425065
     71 C3         14.5220   22.0670   29.8750 c3         4 MGO      0.093211
     72 H3         15.2600   21.3440   29.5140 h1         4 MGO      0.064468
     73 O3         14.2630   23.0610   28.8720 oh         4 MGO     -0.592567
     74 HO3        13.6320   22.6690   28.2520 ho         4 MGO      0.421017
     75 C4         15.0410   22.7430   31.1360 c3         4 MGO      0.127621
     76 H4         14.3940   23.5910   31.3800 h1         4 MGO      0.080661
     77 C5         15.1050   21.7660   32.3220 c3         4 MGO      0.104343
     78 H5         15.8450   21.0020   32.0760 h1         4 MGO      0.068516
     79 O5         13.7900   21.0910   32.4830 os         4 MGO     -0.427383
     80 C6         15.5300   22.3410   33.6820 c3         4 MGO      0.141081
     81 H61        16.6120   22.2420   33.8030 h1         4 MGO      0.057384
     82 H62        15.0490   21.7880   34.4910 h1         4 MGO      0.057384
     83 O6         15.1860   23.7280   33.7800 oh         4 MGO     -0.593555
     84 HO6        15.9300   24.2460   33.4450 ho         4 MGO      0.422027
     85 C1         15.3200   15.3460   31.3110 c3         5 MGO      0.304529
     86 H1         15.2640   14.2510   31.4730 h2         5 MGO      0.090782
     87 O1         16.6690   15.7580   30.9020 os         5 MGO     -0.453070
     88 C2         14.3500   15.7200   30.1950 c3         5 MGO      0.092199
     89 H2         13.3380   15.3990   30.4570 h1         5 MGO      0.102926
     90 O2         14.7650   15.0850   28.9760 oh         5 MGO     -0.586639
     91 HO2        15.6990   14.8310   29.0440 ho         5 MGO      0.425065
     92 C3         14.3810   17.2150   29.9480 c3         5 MGO      0.093211
     93 H3         15.3690   17.4960   29.5680 h1         5 MGO      0.064468
     94 O3         13.3680   17.4980   28.9700 oh         5 MGO     -0.592567
     95 HO3        13.3780   16.7630   28.3440 ho         5 MGO      0.421017
     96 C4         14.0840   17.9890   31.2250 c3         5 MGO      0.127621
     97 H4         13.0330   17.8500   31.4910 h1         5 MGO      0.080661
     98 C5         14.9900   17.5440   32.3870 c3         5 MGO      0.104343
     99 H5         16.0160   17.8030   32.1200 h1         5 MGO      0.068516
    100 O5         14.9190   16.0660   32.5320 os         5 MGO     -0.427383
    101 C6         14.7350   18.1840   33.7590 c3         5 MGO      0.141081
    102 H61        15.3650   19.0700   33.8740 h1         5 MGO      0.057384
    103 H62        14.9920   17.4830   34.5560 h1         5 MGO      0.057384
    104 O6         13.3630   18.5780   33.8940 oh         5 MGO     -0.593555
    105 HO6        13.2820   19.4850   33.5690 ho         5 MGO      0.422027
    106 C1         20.6330   14.5300   31.2110 c3         6 MGO      0.304529
    107 H1         21.5540   13.9310   31.3470 h2         6 MGO      0.090782
    108 O1         20.9410   15.9070   30.8110 os         6 MGO     -0.453070
    109 C2         19.7970   13.8890   30.1090 c3         6 MGO      0.092199
    110 H2         19.5740   12.8490   30.3640 h1         6 MGO      0.102926
    111 O2         20.5270   13.9420   28.8720 oh         6 MGO     -0.586639
    112 HO2        21.2140   14.6230   28.9320 ho         6 MGO      0.425065
    113 C3         18.5140   14.6670   29.8990 c3         6 MGO      0.093211
    114 H3         18.7540   15.6660   29.5250 h1         6 MGO      0.064468
    115 O3         17.7390   13.9400   28.9330 oh         6 MGO     -0.592567
    116 HO3        18.3660   13.5870   28.2870 ho         6 MGO      0.421017
    117 C4         17.7230   14.7810   31.1960 c3         6 MGO      0.127621
    118 H4         17.3240   13.7990   31.4620 h1         6 MGO      0.080661
    119 C5         18.5890   15.3320   32.3440 c3         6 MGO      0.104343
    120 H5         18.8710   16.3530   32.0810 h1         6 MGO      0.068516
    121 O5         19.8370   14.5290   32.4530 os         6 MGO     -0.427383
    122 C6         17.9390   15.4180   33.7320 c3         6 MGO      0.141081
    123 H61        17.4900   16.4040   33.8690 h1         6 MGO      0.057384
    124 H62        18.6940   15.2810   34.5100 h1         6 MGO      0.057384
    125 O6         16.9150   14.4250   33.8800 oh         6 MGO     -0.593555
    126 HO6        16.0810   14.8100   33.5790 ho         6 MGO      0.422027
@<TRIPOS>BOND
    1    17    20 1
    2    14    16 1
    3    14    17 1
    4    12    14 1
    5    12   108 1
    6     8    10 1
    7     8    12 1
    8     4     6 1
    9     4     8 1
   10     3    33 1
   11     1     3 1
   12     1     4 1
   13     1    16 1
   14    38    41 1
   15    35    37 1
   16    35    38 1
   17    33    35 1
   18    29    31 1
   19    29    33 1
   20    25    27 1
   21    25    29 1
   22    24    54 1
   23    22    24 1
   24    22    25 1
   25    22    37 1
   26    59    62 1
   27    56    58 1
   28    56    59 1
   29    54    56 1
   30    50    52 1
   31    50    54 1
   32    46    48 1
   33    46    50 1
   34    45    75 1
   35    43    45 1
   36    43    46 1
   37    43    58 1
   38    80    83 1
   39    77    79 1
   40    77    80 1
   41    75    77 1
   42    71    73 1
   43    71    75 1
   44    67    69 1
   45    67    71 1
   46    66    96 1
   47    64    66 1
   48    64    67 1
   49    64    79 1
   50   101   104 1
   51    98   100 1
   52    98   101 1
   53    96    98 1
   54    92    94 1
   55    92    96 1
   56    88    90 1
   57    88    92 1
   58    87   117 1
   59    85    87 1
   60    85    88 1
   61    85   100 1
   62   122   125 1
   63   119   121 1
   64   119   122 1
   65   117   119 1
   66   113   115 1
   67   113   117 1
   68   109   111 1
   69   109   113 1
   70   106   108 1
   71   106   109 1
   72   106   121 1
   73    20    21 1
   74    17    18 1
   75    17    19 1
   76    14    15 1
   77    12    13 1
   78    10    11 1
   79     8     9 1
   80     6     7 1
   81     4     5 1
   82     1     2 1
   83    41    42 1
   84    38    39 1
   85    38    40 1
   86    35    36 1
   87    33    34 1
   88    31    32 1
   89    29    30 1
   90    27    28 1
   91    25    26 1
   92    22    23 1
   93    62    63 1
   94    59    60 1
   95    59    61 1
   96    56    57 1
   97    54    55 1
   98    52    53 1
   99    50    51 1
  100    48    49 1
  101    46    47 1
  102    43    44 1
  103    83    84 1
  104    80    81 1
  105    80    82 1
  106    77    78 1
  107    75    76 1
  108    73    74 1
  109    71    72 1
  110    69    70 1
  111    67    68 1
  112    64    65 1
  113   104   105 1
  114   101   102 1
  115   101   103 1
  116    98    99 1
  117    96    97 1
  118    94    95 1
  119    92    93 1
  120    90    91 1
  121    88    89 1
  122    85    86 1
  123   125   126 1
  124   122   123 1
  125   122   124 1
  126   119   120 1
  127   117   118 1
  128   115   116 1
  129   113   114 1
  130   111   112 1
  131   109   110 1
  132   106   107 1
@<TRIPOS>SUBSTRUCTURE
      1 MGO               1 ****               0 ****  **** 
      2 MGO              22 ****               0 ****  **** 
      3 MGO              43 ****               0 ****  **** 
      4 MGO              64 ****               0 ****  **** 
      5 MGO              85 ****               0 ****  **** 
      6 MGO             106 ****               0 ****  **** 
