@<TRIPOS>MOLECULE
Cpptraj
  126   132     1     0     0
SMALL
No Charge or Current Charge


@<TRIPOS>ATOM
      1 C1          16.6290    14.6100    34.6650 C.3        1 MGO       0.304529
      2 H1          15.5830    14.2630    34.5500 H          1 MGO       0.090782
      3 O1          16.6860    16.0370    35.0080 O.3        1 MGO      -0.453070
      4 C2          17.2800    13.8230    35.7970 C.3        1 MGO       0.092199
      5 H2          17.2280    12.7510    35.5850 H          1 MGO       0.102926
      6 O2          16.5950    14.1130    37.0270 O.3        1 MGO      -0.586639
      7 HO2         16.1040    14.9430    36.9370 H          1 MGO       0.425065
      8 C3          18.7210    14.2540    35.9800 C.3        1 MGO       0.093211
      9 H3          18.7450    15.2950    36.3140 H          1 MGO       0.064468
     10 O3          19.2900    13.3940    36.9800 O.3        1 MGO      -0.592567
     11 HO3         18.5970    13.2390    37.6370 H          1 MGO       0.421017
     12 C4          19.5060    14.1110    34.6850 C.3        1 MGO       0.127621
     13 H4          19.6390    13.0490    34.4610 H          1 MGO       0.080661
     14 C5          18.8040    14.8170    33.5110 C.3        1 MGO       0.104343
     15 H5          18.7930    15.8870    33.7300 H          1 MGO       0.068516
     16 O5          17.3910    14.3560    33.4290 O.3        1 MGO      -0.427383
     17 C6          19.4450    14.6780    32.1230 C.3        1 MGO       0.141081
     18 H61         20.1310    15.5100    31.9490 H          1 MGO       0.057384
     19 H62         18.6760    14.7070    31.3470 H          1 MGO       0.057384
     20 O6          20.1810    13.4510    32.0210 O.3        1 MGO      -0.593555
     21 HO6         21.0870    13.6220    32.3090 H          1 MGO       0.422027
     22 C1          14.4530    19.5250    34.6100 C.3        2 MGO       0.304529
     23 H1          13.6300    20.2530    34.4670 H          2 MGO       0.090782
     24 O1          15.7140    20.2000    34.9410 O.3        2 MGO      -0.453070
     25 C2          14.0880    18.6020    35.7670 C.3        2 MGO       0.092199
     26 H2          13.1350    18.1060    35.5630 H          2 MGO       0.102926
     27 O2          13.9880    19.3760    36.9730 O.3        2 MGO      -0.586639
     28 HO2         14.4610    20.2140    36.8620 H          2 MGO       0.425065
     29 C3          15.1810    17.5770    35.9880 C.3        2 MGO       0.093211
     30 H3          16.0930    18.0860    36.3140 H          2 MGO       0.064468
     31 O3          14.7140    16.6830    37.0130 O.3        2 MGO      -0.592567
     32 HO3         14.2290    17.2260    37.6500 H          2 MGO       0.421017
     33 C4          15.4600    16.7860    34.7180 C.3        2 MGO       0.127621
     34 H4          14.6090    16.1330    34.5080 H          2 MGO       0.080661
     35 C5          15.7270    17.7120    33.5170 C.3        2 MGO       0.104343
     36 H5          16.6470    18.2620    33.7270 H          2 MGO       0.068516
     37 O5          14.6230    18.7020    33.3980 O.3        2 MGO      -0.427383
     38 C6          15.9370    17.0450    32.1500 C.3        2 MGO       0.141081
     39 H61         17.0020    16.8630    31.9890 H          2 MGO       0.057384
     40 H62         15.5830    17.7030    31.3530 H          2 MGO       0.057384
     41 O6          15.2440    15.7930    32.0810 O.3        2 MGO      -0.593555
     42 HO6         15.8430    15.1020    32.3950 H          2 MGO       0.422027
     43 C1          17.6200    23.8650    34.4480 C.3        3 MGO       0.304529
     44 H1          17.8380    24.9370    34.2740 H          3 MGO       0.090782
     45 O1          18.8320    23.1220    34.8100 O.3        3 MGO      -0.453070
     46 C2          16.6300    23.7540    35.6010 C.3        3 MGO       0.092199
     47 H2          15.7240    24.3230    35.3740 H          3 MGO       0.102926
     48 O2          17.2400    24.2640    36.7980 O.3        3 MGO      -0.586639
     49 HO2         18.2040    24.2700    36.6930 H          3 MGO       0.425065
     50 C3          16.2860    22.3010    35.8640 C.3        3 MGO       0.093211
     51 H3          17.1810    21.7770    36.2110 H          3 MGO       0.064468
     52 O3          15.2720    22.2890    36.8820 O.3        3 MGO      -0.592567
     53 HO3         15.4950    22.9990    37.4990 H          3 MGO       0.421017
     54 C4          15.7510    21.6270    34.6090 C.3        3 MGO       0.127621
     55 H4          14.7620    22.0310    34.3790 H          3 MGO       0.080661
     56 C5          16.6960    21.8230    33.4090 C.3        3 MGO       0.104343
     57 H5          17.6300    21.3080    33.6410 H          3 MGO       0.068516
     58 O5          17.0010    23.2700    33.2480 O.3        3 MGO      -0.427383
     59 C6          16.2340    21.2670    32.0540 C.3        3 MGO       0.141081
     60 H61         16.6100    20.2500    31.9270 H          3 MGO       0.057384
     61 H62         16.6310    21.8780    31.2420 H          3 MGO       0.057384
     62 O6          14.8020    21.2380    31.9750 O.3        3 MGO      -0.593555
     63 HO6         14.5030    20.3840    32.3130 H          3 MGO       0.422027
     64 C1          22.9630    23.2920    34.3420 C.3        4 MGO       0.304529
     65 H1          24.0020    23.6320    34.1660 H          4 MGO       0.090782
     66 O1          22.9230    21.8800    34.7460 O.3        4 MGO      -0.453070
     67 C2          22.3620    24.1270    35.4670 C.3        4 MGO       0.092199
     68 H2          22.4050    25.1890    35.2080 H          4 MGO       0.102926
     69 O2          23.1010    23.8890    36.6760 O.3        4 MGO      -0.586639
     70 HO2         23.5880    23.0540    36.6000 H          4 MGO       0.425065
     71 C3          20.9320    23.7050    35.7320 C.3        4 MGO       0.093211
     72 H3          20.9230    22.6790    36.1100 H          4 MGO       0.064468
     73 O3          20.4060    24.6060    36.7190 O.3        4 MGO      -0.592567
     74 HO3         21.1280    24.7880    37.3370 H          4 MGO       0.421017
     75 C4          20.0890    23.7940    34.4670 C.3        4 MGO       0.127621
     76 H4          19.9450    24.8450    34.2050 H          4 MGO       0.080661
     77 C5          20.7400    23.0390    33.2940 C.3        4 MGO       0.104343
     78 H5          20.7610    21.9800    33.5580 H          4 MGO       0.068516
     79 O5          22.1460    23.4930    33.1300 O.3        4 MGO      -0.427383
     80 C6          20.0370    23.1200    31.9310 C.3        4 MGO       0.141081
     81 H61         19.3450    22.2820    31.8230 H          4 MGO       0.057384
     82 H62         20.7710    23.0580    31.1250 H          4 MGO       0.057384
     83 O6          19.2970    24.3410    31.8100 O.3        4 MGO      -0.593555
     84 HO6         18.4050    24.1840    32.1460 H          4 MGO       0.422027
     85 C1          25.1390    18.3770    34.3960 C.3        5 MGO       0.304529
     86 H1          25.9550    17.6430    34.2480 H          5 MGO       0.090782
     87 O1          23.8940    17.7180    34.8120 O.3        5 MGO      -0.453070
     88 C2          25.5550    19.3470    35.4970 C.3        5 MGO       0.092199
     89 H2          26.4960    19.8350    35.2300 H          5 MGO       0.102926
     90 O2          25.7090    18.6250    36.7290 O.3        5 MGO      -0.586639
     91 HO2         25.2310    17.7840    36.6730 H          5 MGO       0.425065
     92 C3          24.4720    20.3830    35.7230 C.3        5 MGO       0.093211
     93 H3          23.5760    19.8880    36.1100 H          5 MGO       0.064468
     94 O3          24.9830    21.3170    36.6870 O.3        5 MGO      -0.592567
     95 HO3         25.4960    20.8020    37.3240 H          5 MGO       0.421017
     96 C4          24.1360    21.1190    34.4340 C.3        5 MGO       0.127621
     97 H4          24.9760    21.7620    34.1600 H          5 MGO       0.080661
     98 C5          23.8160    20.1440    33.2870 C.3        5 MGO       0.104343
     99 H5          22.9080    19.6030    33.5600 H          5 MGO       0.068516
    100 O5          24.9150    19.1490    33.1610 O.3        5 MGO      -0.427383
    101 C6          23.5460    20.7530    31.9040 C.3        5 MGO       0.141081
    102 H61         22.4740    20.9290    31.7830 H          5 MGO       0.057384
    103 H62         23.8640    20.0620    31.1190 H          5 MGO       0.057384
    104 O6          24.2330    22.0010    31.7510 O.3        5 MGO      -0.593555
    105 HO6         23.6480    22.7030    32.0620 H          5 MGO       0.422027
    106 C1          21.9720    14.0370    34.5580 C.3        6 MGO       0.304529
    107 H1          21.7470    12.9580    34.4390 H          6 MGO       0.090782
    108 O1          20.7760    14.7960    34.9430 O.3        6 MGO      -0.453070
    109 C2          23.0130    14.1960    35.6610 C.3        6 MGO       0.092199
    110 H2          23.9080    13.6170    35.4180 H          6 MGO       0.102926
    111 O2          22.4560    13.7370    36.9040 O.3        6 MGO      -0.586639
    112 HO2         21.4890    13.7280    36.8420 H          6 MGO       0.425065
    113 C3          23.3660    15.6570    35.8470 C.3        6 MGO       0.093211
    114 H3          22.4860    16.1970    36.2110 H          6 MGO       0.064468
    115 O3          24.4250    15.7110    36.8170 O.3        6 MGO      -0.592567
    116 HO3         24.2300    15.0280    37.4730 H          6 MGO       0.421017
    117 C4          23.8440    16.2780    34.5420 C.3        6 MGO       0.127621
    118 H4          24.8230    15.8640    34.2860 H          6 MGO       0.080661
    119 C5          22.8480    16.0330    33.3950 C.3        6 MGO       0.104343
    120 H5          21.9240    16.5570    33.6460 H          6 MGO       0.068516
    121 O5          22.5370    14.5800    33.3100 O.3        6 MGO      -0.427383
    122 C6          23.2480    16.5310    31.9990 C.3        6 MGO       0.141081
    123 H61         22.8660    17.5430    31.8450 H          6 MGO       0.057384
    124 H62         22.8160    15.8860    31.2300 H          6 MGO       0.057384
    125 O6          24.6750    16.5550    31.8550 O.3        6 MGO      -0.593555
    126 HO6         24.9890    17.4230    32.1430 H          6 MGO       0.422027
@<TRIPOS>BOND
     1    17    20 1   
     2    14    16 1   
     3    14    17 1   
     4    12    14 1   
     5    12   108 1   
     6     8    10 1   
     7     8    12 1   
     8     4     6 1   
     9     4     8 1   
    10     3    33 1   
    11     1     3 1   
    12     1     4 1   
    13     1    16 1   
    14    38    41 1   
    15    35    37 1   
    16    35    38 1   
    17    33    35 1   
    18    29    31 1   
    19    29    33 1   
    20    25    27 1   
    21    25    29 1   
    22    24    54 1   
    23    22    24 1   
    24    22    25 1   
    25    22    37 1   
    26    59    62 1   
    27    56    58 1   
    28    56    59 1   
    29    54    56 1   
    30    50    52 1   
    31    50    54 1   
    32    46    48 1   
    33    46    50 1   
    34    45    75 1   
    35    43    45 1   
    36    43    46 1   
    37    43    58 1   
    38    80    83 1   
    39    77    79 1   
    40    77    80 1   
    41    75    77 1   
    42    71    73 1   
    43    71    75 1   
    44    67    69 1   
    45    67    71 1   
    46    66    96 1   
    47    64    66 1   
    48    64    67 1   
    49    64    79 1   
    50   101   104 1   
    51    98   100 1   
    52    98   101 1   
    53    96    98 1   
    54    92    94 1   
    55    92    96 1   
    56    88    90 1   
    57    88    92 1   
    58    87   117 1   
    59    85    87 1   
    60    85    88 1   
    61    85   100 1   
    62   122   125 1   
    63   119   121 1   
    64   119   122 1   
    65   117   119 1   
    66   113   115 1   
    67   113   117 1   
    68   109   111 1   
    69   109   113 1   
    70   106   108 1   
    71   106   109 1   
    72   106   121 1   
    73    20    21 1   
    74    17    18 1   
    75    17    19 1   
    76    14    15 1   
    77    12    13 1   
    78    10    11 1   
    79     8     9 1   
    80     6     7 1   
    81     4     5 1   
    82     1     2 1   
    83    41    42 1   
    84    38    39 1   
    85    38    40 1   
    86    35    36 1   
    87    33    34 1   
    88    31    32 1   
    89    29    30 1   
    90    27    28 1   
    91    25    26 1   
    92    22    23 1   
    93    62    63 1   
    94    59    60 1   
    95    59    61 1   
    96    56    57 1   
    97    54    55 1   
    98    52    53 1   
    99    50    51 1   
   100    48    49 1   
   101    46    47 1   
   102    43    44 1   
   103    83    84 1   
   104    80    81 1   
   105    80    82 1   
   106    77    78 1   
   107    75    76 1   
   108    73    74 1   
   109    71    72 1   
   110    69    70 1   
   111    67    68 1   
   112    64    65 1   
   113   104   105 1   
   114   101   102 1   
   115   101   103 1   
   116    98    99 1   
   117    96    97 1   
   118    94    95 1   
   119    92    93 1   
   120    90    91 1   
   121    88    89 1   
   122    85    86 1   
   123   125   126 1   
   124   122   123 1   
   125   122   124 1   
   126   119   120 1   
   127   117   118 1   
   128   115   116 1   
   129   113   114 1   
   130   111   112 1   
   131   109   110 1   
   132   106   107 1   
@<TRIPOS>SUBSTRUCTURE
     1 MGO         1 TEMP              0 ****  ****    0 ROOT
