@<TRIPOS>MOLECULE
PNT
   16    15     1     0     0
SMALL
bcc


@<TRIPOS>ATOM
      1 C1         -0.0000   -0.0000    5.1210  c        1 PNT      0.907045
      2 O1          0.1260    1.2140    5.0940  o        1 PNT     -0.854322
      3 O2         -0.0610   -0.5880    6.1880  o        1 PNT     -0.854322
      4 C2         -0.0850   -0.8180    3.8320 c3        1 PNT     -0.193518
      5 H1         -1.0270   -1.3750    3.8230 hc        1 PNT      0.018189
      6 H2          0.7230   -1.5560    3.8230 hc        1 PNT      0.018189
      7 C3          0.0040    0.0370    2.5470 c3        1 PNT     -0.065440
      8 H3         -0.8090    0.7670    2.5340 hc        1 PNT      0.043174
      9 H4          0.9490    0.5840    2.5340 hc        1 PNT      0.043174
     10 C4         -0.0880   -0.8460    1.2830 c3        1 PNT     -0.081450
     11 H5         -1.0310   -1.3970    1.2860 hc        1 PNT      0.024685
     12 H6          0.7230   -1.5790    1.2860 hc        1 PNT      0.024685
     13 C5          0.0000    0.0000   -0.0000 c3        1 PNT     -0.086153
     14 H7         -0.8170    0.7250   -0.0410 hc        1 PNT      0.018689
     15 H8         -0.0660   -0.6420   -0.8810 hc        1 PNT      0.018689
     16 H9          0.9480    0.5420   -0.0410 hc        1 PNT      0.018686
@<TRIPOS>BOND
     1    1    2 1   
     2    1    3 1   
     3    1    4 1   
     4    4    5 1   
     5    4    6 1   
     6    4    7 1   
     7    7    8 1   
     8    7    9 1   
     9    7   10 1   
    10   10   11 1   
    11   10   12 1   
    12   10   13 1   
    13   13   14 1   
    14   13   15 1   
    15   13   16 1   
@<TRIPOS>SUBSTRUCTURE
     1 PNT         1 TEMP              0 ****  ****    0 ROOT
