@<TRIPOS>MOLECULE
Cpptraj generated mol2 file.
   22    22     1     0     0
SMALL
USER_CHARGES


@<TRIPOS>ATOM
      1 C1         20.5800   20.4730   32.3120 c3         1 M4T     -0.090183
      2 H2         19.5650   20.3990   31.9150 hc         1 M4T      0.034002
      3 H3         20.8840   21.5200   32.2640 hc         1 M4T      0.034002
      4 H4         21.3310   19.8510   31.8200 hc         1 M4T      0.034002
      5 C2         20.5200   19.9390   33.7740 c3         1 M4T     -0.067762
      6 H5         20.4750   18.8700   33.5550 hc         1 M4T      0.049654
      7 C3         19.2620   20.4030   34.4700 c3         1 M4T     -0.072466
      8 H6         19.2350   21.4820   34.3070 hc         1 M4T      0.041912
      9 H7         18.3690   20.0180   33.9760 hc         1 M4T      0.041912
     10 C4         19.2340   20.0700   35.9790 c3         1 M4T     -0.093486
     11 H8         19.2200   18.9820   36.0680 hc         1 M4T      0.050154
     12 H9         18.3850   20.6000   36.4150 hc         1 M4T      0.050154
     13 C5         20.5800   20.4730   36.6620 c3         1 M4T      0.141970
     14 H10        20.5810   21.5660   36.6840 h1         1 M4T      0.031671
     15 C6         21.7230   19.8700   35.9950 c3         1 M4T     -0.093486
     16 H11        21.7060   18.7920   36.1630 hc         1 M4T      0.050154
     17 H12        22.6970   20.1770   36.3800 hc         1 M4T      0.050154
     18 C7         21.8480   20.2060   34.5020 c3         1 M4T     -0.072466
     19 H13        22.6430   19.6500   33.9990 hc         1 M4T      0.041912
     20 H14        22.1290   21.2600   34.4520 hc         1 M4T      0.041912
     21 O1         20.4880   20.0030   37.9420 oh         1 M4T     -0.601350
     22 H1         19.5280   20.1010   38.0750 ho         1 M4T      0.397634
@<TRIPOS>BOND
    1    15    18 1
    2    13    15 1
    3    13    21 1
    4    10    13 1
    5     7    10 1
    6     5     7 1
    7     5    18 1
    8     1     5 1
    9    21    22 1
   10    18    19 1
   11    18    20 1
   12    15    16 1
   13    15    17 1
   14    13    14 1
   15    10    11 1
   16    10    12 1
   17     7     8 1
   18     7     9 1
   19     5     6 1
   20     1     2 1
   21     1     3 1
   22     1     4 1
@<TRIPOS>SUBSTRUCTURE
      1 M4T               1 ****               0 ****  **** 
