@<TRIPOS>MOLECULE
Cpptraj
  147   154     1     0     0
SMALL
No Charge or Current Charge


@<TRIPOS>ATOM
      1 C1          15.5130    16.0840    34.6150 C.3        1 MGO       0.304529
      2 H1          14.4190    15.9760    34.4810 H          1 MGO       0.090782
      3 O1          15.8840    17.4770    34.8930 O.3        1 MGO      -0.453070
      4 C2          15.9340    15.2180    35.7980 C.3        1 MGO       0.092199
      5 H2          15.6130    14.1870    35.6310 H          1 MGO       0.102926
      6 O2          15.3340    15.7200    37.0050 O.3        1 MGO      -0.586639
      7 HO2         15.0290    16.6330    36.8700 H          1 MGO       0.425065
      8 C3          17.4350    15.2700    35.9950 C.3        1 MGO       0.093211
      9 H3          17.7320    16.2870    36.2730 H          1 MGO       0.064468
     10 O3          17.7440    14.3430    37.0490 O.3        1 MGO      -0.592567
     11 HO3         17.0270    14.4160    37.6930 H          1 MGO       0.421017
     12 C4          18.1470    14.8450    34.7210 C.3        1 MGO       0.127621
     13 H4          17.9320    13.7910    34.5280 H          1 MGO       0.080661
     14 C5          17.6940    15.6910    33.5210 C.3        1 MGO       0.104343
     15 H5          17.9600    16.7310    33.7250 H          1 MGO       0.068516
     16 O5          16.2140    15.6110    33.4050 O.3        1 MGO      -0.427383
     17 C6          18.3200    15.3500    32.1600 C.3        1 MGO       0.141081
     18 H61         19.2380    15.9260    32.0240 H          1 MGO       0.057384
     19 H62         17.6310    15.6120    31.3550 H          1 MGO       0.057384
     20 O6          18.6410    13.9550    32.0840 O.3        1 MGO      -0.593555
     21 HO6         19.5410    13.8350    32.4130 H          1 MGO       0.422027
     22 C1          14.1340    21.2680    34.5080 C.3        2 MGO       0.304529
     23 H1          13.3680    22.0560    34.3610 H          2 MGO       0.090782
     24 O1          15.4500    21.8470    34.8080 O.3        2 MGO      -0.453070
     25 C2          13.6990    20.4010    35.6870 C.3        2 MGO       0.092199
     26 H2          12.6950    20.0080    35.5040 H          2 MGO       0.102926
     27 O2          13.6990    21.1850    36.8910 O.3        2 MGO      -0.586639
     28 HO2         14.2230    21.9920    36.7630 H          2 MGO       0.425065
     29 C3          14.6740    19.2620    35.9020 C.3        2 MGO       0.093211
     30 H3          15.6480    19.6620    36.1950 H          2 MGO       0.064468
     31 O3          14.1240    18.4440    36.9470 O.3        2 MGO      -0.592567
     32 HO3         13.7220    19.0520    37.5860 H          2 MGO       0.421017
     33 C4          14.8080    18.4370    34.6320 C.3        2 MGO       0.127621
     34 H4          13.8530    17.9470    34.4240 H          2 MGO       0.080661
     35 C5          15.2050    19.3150    33.4370 C.3        2 MGO       0.104343
     36 H5          16.1800    19.7560    33.6570 H          2 MGO       0.068516
     37 O5          14.2220    20.4230    33.3020 O.3        2 MGO      -0.427383
     38 C6          15.3520    18.6110    32.0810 C.3        2 MGO       0.141081
     39 H61         16.3770    18.2530    31.9610 H          2 MGO       0.057384
     40 H62         15.1420    19.3110    31.2690 H          2 MGO       0.057384
     41 O6          14.4630    17.4900    31.9910 O.3        2 MGO      -0.593555
     42 HO6         14.9250    16.7110    32.3300 H          2 MGO       0.422027
     43 C1          17.3280    25.5790    34.4470 C.3        3 MGO       0.304529
     44 H1          17.4700    26.6670    34.2980 H          3 MGO       0.090782
     45 O1          18.5970    24.9110    34.7690 O.3        3 MGO      -0.453070
     46 C2          16.3610    25.3810    35.6090 C.3        3 MGO       0.092199
     47 H2          15.4300    25.9190    35.4090 H          3 MGO       0.102926
     48 O2          16.9520    25.8730    36.8220 O.3        3 MGO      -0.586639
     49 HO2         17.9120    25.9660    36.7100 H          3 MGO       0.425065
     50 C3          16.0730    23.9090    35.8230 C.3        3 MGO       0.093211
     51 H3          16.9900    23.3980    36.1340 H          3 MGO       0.064468
     52 O3          15.0740    23.8310    36.8520 O.3        3 MGO      -0.592567
     53 HO3         15.2880    24.5260    37.4920 H          3 MGO       0.421017
     54 C4          15.5330    23.2880    34.5450 C.3        3 MGO       0.127621
     55 H4          14.5580    23.7290    34.3190 H          3 MGO       0.080661
     56 C5          16.4880    23.5210    33.3660 C.3        3 MGO       0.104343
     57 H5          17.4370    23.0340    33.6030 H          3 MGO       0.068516
     58 O5          16.7440    24.9810    33.2310 O.3        3 MGO      -0.427383
     59 C6          16.0520    22.9630    32.0030 C.3        3 MGO       0.141081
     60 H61         16.4130    21.9390    31.8920 H          3 MGO       0.057384
     61 H62         16.4820    23.5630    31.1960 H          3 MGO       0.057384
     62 O6          14.6220    22.9600    31.8890 O.3        3 MGO      -0.593555
     63 HO6         14.2970    22.1140    32.2240 H          3 MGO       0.422027
     64 C1          22.6910    25.7690    34.4740 C.3        4 MGO       0.304529
     65 H1          23.6320    26.3380    34.3410 H          4 MGO       0.090782
     66 O1          22.9540    24.3620    34.8060 O.3        4 MGO      -0.453070
     67 C2          21.9120    26.4050    35.6220 C.3        4 MGO       0.092199
     68 H2          21.7580    27.4680    35.4160 H          4 MGO       0.102926
     69 O2          22.6460    26.2540    36.8490 O.3        4 MGO      -0.586639
     70 HO2         23.3200    25.5610    36.7500 H          4 MGO       0.425065
     71 C3          20.5800    25.7130    35.8150 C.3        4 MGO       0.093211
     72 H3          20.7450    24.6790    36.1320 H          4 MGO       0.064468
     73 O3          19.8770    26.4480    36.8300 O.3        4 MGO      -0.592567
     74 HO3         20.5430    26.7170    37.4800 H          4 MGO       0.421017
     75 C4          19.7780    25.7440    34.5250 C.3        4 MGO       0.127621
     76 H4          19.5200    26.7790    34.2900 H          4 MGO       0.080661
     77 C5          20.5770    25.1390    33.3600 C.3        4 MGO       0.104343
     78 H5          20.7840    24.0950    33.6030 H          4 MGO       0.068516
     79 O5          21.8780    25.8500    33.2450 O.3        4 MGO      -0.427383
     80 C6          19.8920    25.1300    31.9850 C.3        4 MGO       0.141081
     81 H61         19.3180    24.2070    31.8670 H          4 MGO       0.057384
     82 H62         20.6420    25.1650    31.1910 H          4 MGO       0.057384
     83 O6          19.0000    26.2430    31.8530 O.3        4 MGO      -0.593555
     84 HO6         18.1290    25.9740    32.1750 H          4 MGO       0.422027
     85 C1          26.1830    21.6970    34.5730 C.3        5 MGO       0.304529
     86 H1          27.2160    21.3150    34.4570 H          5 MGO       0.090782
     87 O1          25.2420    20.6150    34.8910 O.3        5 MGO      -0.453070
     88 C2          26.1750    22.7040    35.7180 C.3        5 MGO       0.092199
     89 H2          26.9120    23.4880    35.5230 H          5 MGO       0.102926
     90 O2          26.4930    22.0410    36.9520 O.3        5 MGO      -0.586639
     91 HO2         26.3730    21.0810    36.8540 H          5 MGO       0.425065
     92 C3          24.7990    23.3160    35.8860 C.3        5 MGO       0.093211
     93 H3          24.0890    22.5420    36.1920 H          5 MGO       0.064468
     94 O3          24.9180    24.3250    36.9020 O.3        5 MGO      -0.592567
     95 HO3         25.5310    23.9740    37.5620 H          5 MGO       0.421017
     96 C4          24.3460    23.9580    34.5860 C.3        5 MGO       0.127621
     97 H4          24.9980    24.8060    34.3610 H          5 MGO       0.080661
     98 C5          24.3910    22.9540    33.4240 C.3        5 MGO       0.104343
     99 H5          23.7000    22.1410    33.6580 H          5 MGO       0.068516
    100 O5          25.7610    22.3790    33.3340 O.3        5 MGO      -0.427383
    101 C6          23.9800    23.4780    32.0400 C.3        5 MGO       0.141081
    102 H61         22.9030    23.3530    31.9040 H          5 MGO       0.057384
    103 H62         24.4890    22.9120    31.2570 H          5 MGO       0.057384
    104 O6          24.2970    24.8710    31.9100 O.3        5 MGO      -0.593555
    105 HO6         23.5370    25.3820    32.2180 H          5 MGO       0.422027
    106 C1          25.1750    16.4280    34.6680 C.3        6 MGO       0.304529
    107 H1          25.5230    15.3820    34.5620 H          6 MGO       0.090782
    108 O1          23.7370    16.4880    34.9600 O.3        6 MGO      -0.453070
    109 C2          25.9390    17.0650    35.8250 C.3        6 MGO       0.092199
    110 H2          27.0140    16.9780    35.6490 H          6 MGO       0.102926
    111 O2          25.5950    16.4050    37.0550 O.3        6 MGO      -0.586639
    112 HO2         24.7720    15.9010    36.9440 H          6 MGO       0.425065
    113 C3          25.5540    18.5220    35.9840 C.3        6 MGO       0.093211
    114 H3          24.5020    18.5940    36.2710 H          6 MGO       0.064468
    115 O3          26.4010    19.0600    37.0120 O.3        6 MGO      -0.592567
    116 HO3         26.4970    18.3650    37.6770 H          6 MGO       0.421017
    117 C4          25.7970    19.2720    34.6840 C.3        6 MGO       0.127621
    118 H4          26.8700    19.2920    34.4780 H          6 MGO       0.080661
    119 C5          25.0600    18.6090    33.5120 C.3        6 MGO       0.104343
    120 H5          23.9910    18.6420    33.7260 H          6 MGO       0.068516
    121 O5          25.4670    17.1790    33.4330 O.3        6 MGO      -0.427383
    122 C6          25.2390    19.2540    32.1290 C.3        6 MGO       0.141081
    123 H61         24.4710    20.0160    31.9770 H          6 MGO       0.057384
    124 H62         25.1270    18.4990    31.3460 H          6 MGO       0.057384
    125 O6          26.5270    19.8730    32.0190 O.3        6 MGO      -0.593555
    126 HO6         26.4480    20.7880    32.3230 H          6 MGO       0.422027
    127 C1          20.4250    13.9290    34.6870 C.3        7 MGO       0.304529
    128 H1          19.8270    13.0050    34.5720 H          7 MGO       0.090782
    129 O1          19.5730    15.0930    34.9610 O.3        7 MGO      -0.453070
    130 C2          21.3800    13.7320    35.8620 C.3        7 MGO       0.092199
    131 H2          21.9860    12.8370    35.6970 H          7 MGO       0.102926
    132 O2          20.6290    13.5940    37.0780 O.3        7 MGO      -0.586639
    133 HO2         19.7240    13.9210    36.9510 H          7 MGO       0.425065
    134 C3          22.2780    14.9420    36.0320 C.3        7 MGO       0.093211
    135 H3          21.6730    15.8110    36.3070 H          7 MGO       0.064468
    136 O3          23.2080    14.6180    37.0780 O.3        7 MGO      -0.592567
    137 HO3         22.7120    14.1110    37.7350 H          7 MGO       0.421017
    138 C4          23.0380    15.2180    34.7450 C.3        7 MGO       0.127621
    139 H4          23.7250    14.3900    34.5530 H          7 MGO       0.080661
    140 C5          22.0800    15.3760    33.5540 C.3        7 MGO       0.104343
    141 H5          21.4350    16.2350    33.7570 H          7 MGO       0.068516
    142 O5          21.2180    14.1680    33.4650 O.3        7 MGO      -0.427383
    143 C6          22.7200    15.6360    32.1830 C.3        7 MGO       0.141081
    144 H61         22.8400    16.7100    32.0300 H          7 MGO       0.057384
    145 H62         22.0750    15.2520    31.3890 H          7 MGO       0.057384
    146 O6          24.0100    15.0150    32.0980 O.3        7 MGO      -0.593555
    147 HO6         24.6690    15.6480    32.4120 H          7 MGO       0.422027
@<TRIPOS>BOND
     1    17    20 1   
     2    14    16 1   
     3    14    17 1   
     4    12    14 1   
     5    12   129 1   
     6     8    10 1   
     7     8    12 1   
     8     4     6 1   
     9     4     8 1   
    10     3    33 1   
    11     1     3 1   
    12     1     4 1   
    13     1    16 1   
    14    38    41 1   
    15    35    37 1   
    16    35    38 1   
    17    33    35 1   
    18    29    31 1   
    19    29    33 1   
    20    25    27 1   
    21    25    29 1   
    22    24    54 1   
    23    22    24 1   
    24    22    25 1   
    25    22    37 1   
    26    59    62 1   
    27    56    58 1   
    28    56    59 1   
    29    54    56 1   
    30    50    52 1   
    31    50    54 1   
    32    46    48 1   
    33    46    50 1   
    34    45    75 1   
    35    43    45 1   
    36    43    46 1   
    37    43    58 1   
    38    80    83 1   
    39    77    79 1   
    40    77    80 1   
    41    75    77 1   
    42    71    73 1   
    43    71    75 1   
    44    67    69 1   
    45    67    71 1   
    46    66    96 1   
    47    64    66 1   
    48    64    67 1   
    49    64    79 1   
    50   101   104 1   
    51    98   100 1   
    52    98   101 1   
    53    96    98 1   
    54    92    94 1   
    55    92    96 1   
    56    88    90 1   
    57    88    92 1   
    58    87   117 1   
    59    85    87 1   
    60    85    88 1   
    61    85   100 1   
    62   122   125 1   
    63   119   121 1   
    64   119   122 1   
    65   117   119 1   
    66   113   115 1   
    67   113   117 1   
    68   109   111 1   
    69   109   113 1   
    70   108   138 1   
    71   106   108 1   
    72   106   109 1   
    73   106   121 1   
    74   143   146 1   
    75   140   142 1   
    76   140   143 1   
    77   138   140 1   
    78   134   136 1   
    79   134   138 1   
    80   130   132 1   
    81   130   134 1   
    82   127   129 1   
    83   127   130 1   
    84   127   142 1   
    85    20    21 1   
    86    17    18 1   
    87    17    19 1   
    88    14    15 1   
    89    12    13 1   
    90    10    11 1   
    91     8     9 1   
    92     6     7 1   
    93     4     5 1   
    94     1     2 1   
    95    41    42 1   
    96    38    39 1   
    97    38    40 1   
    98    35    36 1   
    99    33    34 1   
   100    31    32 1   
   101    29    30 1   
   102    27    28 1   
   103    25    26 1   
   104    22    23 1   
   105    62    63 1   
   106    59    60 1   
   107    59    61 1   
   108    56    57 1   
   109    54    55 1   
   110    52    53 1   
   111    50    51 1   
   112    48    49 1   
   113    46    47 1   
   114    43    44 1   
   115    83    84 1   
   116    80    81 1   
   117    80    82 1   
   118    77    78 1   
   119    75    76 1   
   120    73    74 1   
   121    71    72 1   
   122    69    70 1   
   123    67    68 1   
   124    64    65 1   
   125   104   105 1   
   126   101   102 1   
   127   101   103 1   
   128    98    99 1   
   129    96    97 1   
   130    94    95 1   
   131    92    93 1   
   132    90    91 1   
   133    88    89 1   
   134    85    86 1   
   135   125   126 1   
   136   122   123 1   
   137   122   124 1   
   138   119   120 1   
   139   117   118 1   
   140   115   116 1   
   141   113   114 1   
   142   111   112 1   
   143   109   110 1   
   144   106   107 1   
   145   146   147 1   
   146   143   144 1   
   147   143   145 1   
   148   140   141 1   
   149   138   139 1   
   150   136   137 1   
   151   134   135 1   
   152   132   133 1   
   153   130   131 1   
   154   127   128 1   
@<TRIPOS>SUBSTRUCTURE
     1 MGO         1 TEMP              0 ****  ****    0 ROOT
