@<TRIPOS>MOLECULE
Cpptraj
  147   154     1     0     0
SMALL
No Charge or Current Charge


@<TRIPOS>ATOM
      1 C1          22.3310    14.4800    33.6380 C.3        1 MGO       0.304529
      2 H1          23.2390    13.8590    33.7680 H          1 MGO       0.090782
      3 O1          22.6740    15.8750    33.3360 O.3        1 MGO      -0.453070
      4 C2          21.5270    13.9080    32.4740 C.3        1 MGO       0.092199
      5 H2          21.3120    12.8530    32.6590 H          1 MGO       0.102926
      6 O2          22.2770    14.0420    31.2550 O.3        1 MGO      -0.586639
      7 HO2         22.9860    14.6960    31.3710 H          1 MGO       0.425065
      8 C3          20.2360    14.6770    32.2850 C.3        1 MGO       0.093211
      9 H3          20.4610    15.7050    31.9900 H          1 MGO       0.064468
     10 O3          19.5020    13.9990    31.2520 O.3        1 MGO      -0.592567
     11 HO3         20.1550    13.7080    30.6020 H          1 MGO       0.421017
     12 C4          19.4250    14.6650    33.5710 C.3        1 MGO       0.127621
     13 H4          19.1070    13.6420    33.7840 H          1 MGO       0.080661
     14 C5          20.2470    15.2040    34.7530 C.3        1 MGO       0.104343
     15 H5          20.5130    16.2400    34.5300 H          1 MGO       0.068516
     16 O5          21.5060    14.4210    34.8610 O.3        1 MGO      -0.427383
     17 C6          19.5540    15.2260    36.1230 C.3        1 MGO       0.141081
     18 H61         19.0310    16.1760    36.2550 H          1 MGO       0.057384
     19 H62         20.2960    15.1340    36.9200 H          1 MGO       0.057384
     20 O6          18.6010    14.1610    36.2280 O.3        1 MGO      -0.593555
     21 HO6         17.7490    14.4850    35.9070 H          1 MGO       0.422027
     22 C1          26.0410    18.3550    33.6380 C.3        2 MGO       0.304529
     23 H1          27.0940    18.6780    33.7660 H          2 MGO       0.090782
     24 O1          25.1640    19.4940    33.3350 O.3        2 MGO      -0.453070
     25 C2          25.9870    17.3710    32.4730 C.3        2 MGO       0.092199
     26 H2          26.6790    16.5440    32.6580 H          2 MGO       0.102926
     27 O2          26.3480    18.0400    31.2540 O.3        2 MGO      -0.586639
     28 HO2         26.2800    19.0020    31.3700 H          2 MGO       0.425065
     29 C3          24.5800    16.8410    32.2860 C.3        2 MGO       0.093211
     30 H3          23.9160    17.6570    31.9900 H          2 MGO       0.064468
     31 O3          24.6520    15.8440    31.2530 O.3        2 MGO      -0.592567
     32 HO3         25.2880    16.1730    30.6010 H          2 MGO       0.421017
     33 C4          24.0840    16.2000    33.5710 C.3        2 MGO       0.127621
     34 H4          24.6870    15.3130    33.7840 H          2 MGO       0.080661
     35 C5          24.1760    17.1780    34.7530 C.3        2 MGO       0.104343
     36 H5          23.5320    18.0310    34.5300 H          2 MGO       0.068516
     37 O5          25.5740    17.6750    34.8610 O.3        2 MGO      -0.427383
     38 C6          23.7270    16.6500    36.1230 C.3        2 MGO       0.141081
     39 H61         22.6590    16.8330    36.2560 H          2 MGO       0.057384
     40 H62         24.2620    17.1730    36.9200 H          2 MGO       0.057384
     41 O6          23.9670    15.2410    36.2290 O.3        2 MGO      -0.593555
     42 HO6         23.1820    14.7770    35.9070 H          2 MGO       0.422027
     43 C1          25.3250    23.6730    33.6370 C.3        3 MGO       0.304529
     44 H1          25.7280    24.6960    33.7660 H          3 MGO       0.090782
     45 O1          23.8870    23.6960    33.3350 O.3        3 MGO      -0.453070
     46 C2          26.0590    23.0170    32.4720 C.3        3 MGO       0.092199
     47 H2          27.1370    23.0420    32.6560 H          3 MGO       0.102926
     48 O2          25.7620    23.7170    31.2540 O.3        3 MGO      -0.586639
     49 HO2         24.9670    24.2630    31.3690 H          3 MGO       0.425065
     50 C3          25.5980    21.5860    32.2840 C.3        3 MGO       0.093211
     51 H3          24.5440    21.5760    31.9900 H          3 MGO       0.064468
     52 O3          26.4210    21.0210    31.2510 O.3        3 MGO      -0.592567
     53 HO3         26.5590    21.7240    30.6000 H          3 MGO       0.421017
     54 C4          25.7900    20.7980    33.5710 C.3        3 MGO       0.127621
     55 H4          26.8600    20.7180    33.7820 H          3 MGO       0.080661
     56 C5          25.0840    21.4800    34.7520 C.3        3 MGO       0.104343
     57 H5          24.0140    21.5090    34.5290 H          3 MGO       0.068516
     58 O5          25.5660    22.8830    34.8600 O.3        3 MGO      -0.427383
     59 C6          25.2160    20.8010    36.1220 C.3        3 MGO       0.141081
     60 H61         24.4070    20.0790    36.2550 H          3 MGO       0.057384
     61 H62         25.1410    21.5450    36.9200 H          3 MGO       0.057384
     62 O6          26.4680    20.1090    36.2280 O.3        3 MGO      -0.593555
     63 HO6         26.3400    19.2060    35.9060 H          3 MGO       0.422027
     64 C1          20.7200    26.4280    33.6390 C.3        4 MGO       0.304529
     65 H1          20.1720    27.3820    33.7670 H          4 MGO       0.090782
     66 O1          19.8060    25.3180    33.3360 O.3        4 MGO      -0.453070
     67 C2          21.6920    26.5930    32.4740 C.3        4 MGO       0.092199
     68 H2          22.3440    27.4520    32.6590 H          4 MGO       0.102926
     69 O2          20.9580    26.7980    31.2540 O.3        4 MGO      -0.586639
     70 HO2         20.0350    26.5180    31.3710 H          4 MGO       0.425065
     71 C3          22.5220    25.3410    32.2850 C.3        4 MGO       0.093211
     72 H3          21.8730    24.5120    31.9900 H          4 MGO       0.064468
     73 O3          23.4770    25.6320    31.2520 O.3        4 MGO      -0.592567
     74 HO3         23.0150    26.1790    30.6020 H          4 MGO       0.421017
     75 C4          23.2580    24.9990    33.5700 C.3        4 MGO       0.127621
     76 H4          23.9870    25.7840    33.7830 H          4 MGO       0.080661
     77 C5          22.2840    24.8710    34.7520 C.3        4 MGO       0.104343
     78 H5          21.5950    24.0530    34.5300 H          4 MGO       0.068516
     79 O5          21.4880    26.1240    34.8610 O.3        4 MGO      -0.427383
     80 C6          22.8990    24.5510    36.1220 C.3        4 MGO       0.141081
     81 H61         22.9580    23.4680    36.2550 H          4 MGO       0.057384
     82 H62         22.2700    24.9550    36.9200 H          4 MGO       0.057384
     83 O6          24.2190    25.0970    36.2280 O.3        4 MGO      -0.593555
     84 HO6         24.8460    24.4370    35.9060 H          4 MGO       0.422027
     85 C1          15.6950    24.5460    33.6390 C.3        5 MGO       0.304529
     86 H1          14.6080    24.7120    33.7680 H          5 MGO       0.090782
     87 O1          15.9930    23.1400    33.3360 O.3        5 MGO      -0.453070
     88 C2          16.1720    25.4090    32.4740 C.3        5 MGO       0.092199
     89 H2          15.9070    26.4540    32.6600 H          5 MGO       0.102926
     90 O2          15.5550    24.9640    31.2560 O.3        5 MGO      -0.586639
     91 HO2         15.1990    24.0680    31.3710 H          5 MGO       0.425065
     92 C3          17.6690    25.2780    32.2860 C.3        5 MGO       0.093211
     93 H3          17.9130    24.2530    31.9910 H          5 MGO       0.064468
     94 O3          18.0370    26.2060    31.2530 O.3        5 MGO      -0.592567
     95 HO3         17.3210    26.1850    30.6020 H          5 MGO       0.421017
     96 C4          18.3940    25.6400    33.5720 C.3        5 MGO       0.127621
     97 H4          18.2360    26.7000    33.7850 H          5 MGO       0.080661
     98 C5          17.8880    24.7970    34.7530 C.3        5 MGO       0.104343
     99 H5          18.0970    23.7490    34.5300 H          5 MGO       0.068516
    100 O5          16.4120    24.9570    34.8620 O.3        5 MGO      -0.427383
    101 C6          18.5210    25.0780    36.1230 C.3        5 MGO       0.141081
    102 H61         19.4050    24.4500    36.2550 H          5 MGO       0.057384
    103 H62         17.8140    24.8390    36.9210 H          5 MGO       0.057384
    104 O6          18.9170    26.4520    36.2290 O.3        5 MGO      -0.593555
    105 HO6         19.8250    26.5290    35.9070 H          5 MGO       0.422027
    106 C1          14.0340    19.4440    33.6380 C.3        6 MGO       0.304529
    107 H1          13.2260    18.6970    33.7660 H          6 MGO       0.090782
    108 O1          15.3190    18.7990    33.3350 O.3        6 MGO      -0.453070
    109 C2          13.6560    20.3550    32.4730 C.3        6 MGO       0.092199
    110 H2          12.6750    20.8000    32.6580 H          6 MGO       0.102926
    111 O2          13.6210    19.5950    31.2540 O.3        6 MGO      -0.586639
    112 HO2         14.0990    18.7580    31.3690 H          6 MGO       0.425065
    113 C3          14.6930    21.4430    32.2850 C.3        6 MGO       0.093211
    114 H3          15.6460    20.9950    31.9900 H          6 MGO       0.064468
    115 O3          14.1970    22.3090    31.2520 O.3        6 MGO      -0.592567
    116 HO3         13.7670    21.7370    30.6010 H          6 MGO       0.421017
    117 C4          14.8620    22.2360    33.5720 C.3        6 MGO       0.127621
    118 H4          13.9340    22.7730    33.7830 H          6 MGO       0.080661
    119 C5          15.2040    21.3140    34.7520 C.3        6 MGO       0.104343
    120 H5          16.1530    20.8250    34.5300 H          6 MGO       0.068516
    121 O5          14.1590    20.2600    34.8610 O.3        6 MGO      -0.427383
    122 C6          15.3780    21.9840    36.1220 C.3        6 MGO       0.141081
    123 H61         16.4200    22.2830    36.2550 H          6 MGO       0.057384
    124 H62         15.1240    21.2810    36.9200 H          6 MGO       0.057384
    125 O6          14.5510    23.1510    36.2280 O.3        6 MGO      -0.593555
    126 HO6         15.0580    23.9090    35.9080 H          6 MGO       0.422027
    127 C1          16.9880    14.9640    33.6380 C.3        7 MGO       0.304529
    128 H1          17.0680    13.8670    33.7660 H          7 MGO       0.090782
    129 O1          18.2920    15.5670    33.3350 O.3        7 MGO      -0.453070
    130 C2          16.0400    15.2360    32.4720 C.3        7 MGO       0.092199
    131 H2          15.0800    14.7460    32.6580 H          7 MGO       0.102926
    132 O2          16.6120    14.7350    31.2540 O.3        7 MGO      -0.586639
    133 HO2         17.5650    14.5870    31.3700 H          7 MGO       0.425065
    134 C3          15.8350    16.7250    32.2850 C.3        7 MGO       0.093211
    135 H3          16.7800    17.1910    31.9890 H          7 MGO       0.064468
    136 O3          14.8490    16.8770    31.2510 O.3        7 MGO      -0.592567
    137 HO3         15.0280    16.1850    30.6010 H          7 MGO       0.421017
    138 C4          15.3210    17.3530    33.5710 C.3        7 MGO       0.127621
    139 H4          14.3220    16.9620    33.7830 H          7 MGO       0.080661
    140 C5          16.2540    17.0450    34.7530 C.3        7 MGO       0.104343
    141 H5          17.2290    17.4830    34.5290 H          7 MGO       0.068516
    142 O5          16.4270    15.5720    34.8600 O.3        7 MGO      -0.427383
    143 C6          15.8390    17.6000    36.1230 C.3        7 MGO       0.141081
    144 H61         16.2540    18.6010    36.2560 H          7 MGO       0.057384
    145 H62         16.2290    16.9620    36.9190 H          7 MGO       0.057384
    146 O6          14.4110    17.6800    36.2280 O.3        7 MGO      -0.593555
    147 HO6         14.1340    18.5480    35.9060 H          7 MGO       0.422027
@<TRIPOS>BOND
     1    17    20 1   
     2    14    16 1   
     3    14    17 1   
     4    12    14 1   
     5    12   129 1   
     6     8    10 1   
     7     8    12 1   
     8     4     6 1   
     9     4     8 1   
    10     3    33 1   
    11     1     3 1   
    12     1     4 1   
    13     1    16 1   
    14    38    41 1   
    15    35    37 1   
    16    35    38 1   
    17    33    35 1   
    18    29    31 1   
    19    29    33 1   
    20    25    27 1   
    21    25    29 1   
    22    24    54 1   
    23    22    24 1   
    24    22    25 1   
    25    22    37 1   
    26    59    62 1   
    27    56    58 1   
    28    56    59 1   
    29    54    56 1   
    30    50    52 1   
    31    50    54 1   
    32    46    48 1   
    33    46    50 1   
    34    45    75 1   
    35    43    45 1   
    36    43    46 1   
    37    43    58 1   
    38    80    83 1   
    39    77    79 1   
    40    77    80 1   
    41    75    77 1   
    42    71    73 1   
    43    71    75 1   
    44    67    69 1   
    45    67    71 1   
    46    66    96 1   
    47    64    66 1   
    48    64    67 1   
    49    64    79 1   
    50   101   104 1   
    51    98   100 1   
    52    98   101 1   
    53    96    98 1   
    54    92    94 1   
    55    92    96 1   
    56    88    90 1   
    57    88    92 1   
    58    87   117 1   
    59    85    87 1   
    60    85    88 1   
    61    85   100 1   
    62   122   125 1   
    63   119   121 1   
    64   119   122 1   
    65   117   119 1   
    66   113   115 1   
    67   113   117 1   
    68   109   111 1   
    69   109   113 1   
    70   108   138 1   
    71   106   108 1   
    72   106   109 1   
    73   106   121 1   
    74   143   146 1   
    75   140   142 1   
    76   140   143 1   
    77   138   140 1   
    78   134   136 1   
    79   134   138 1   
    80   130   132 1   
    81   130   134 1   
    82   127   129 1   
    83   127   130 1   
    84   127   142 1   
    85    20    21 1   
    86    17    18 1   
    87    17    19 1   
    88    14    15 1   
    89    12    13 1   
    90    10    11 1   
    91     8     9 1   
    92     6     7 1   
    93     4     5 1   
    94     1     2 1   
    95    41    42 1   
    96    38    39 1   
    97    38    40 1   
    98    35    36 1   
    99    33    34 1   
   100    31    32 1   
   101    29    30 1   
   102    27    28 1   
   103    25    26 1   
   104    22    23 1   
   105    62    63 1   
   106    59    60 1   
   107    59    61 1   
   108    56    57 1   
   109    54    55 1   
   110    52    53 1   
   111    50    51 1   
   112    48    49 1   
   113    46    47 1   
   114    43    44 1   
   115    83    84 1   
   116    80    81 1   
   117    80    82 1   
   118    77    78 1   
   119    75    76 1   
   120    73    74 1   
   121    71    72 1   
   122    69    70 1   
   123    67    68 1   
   124    64    65 1   
   125   104   105 1   
   126   101   102 1   
   127   101   103 1   
   128    98    99 1   
   129    96    97 1   
   130    94    95 1   
   131    92    93 1   
   132    90    91 1   
   133    88    89 1   
   134    85    86 1   
   135   125   126 1   
   136   122   123 1   
   137   122   124 1   
   138   119   120 1   
   139   117   118 1   
   140   115   116 1   
   141   113   114 1   
   142   111   112 1   
   143   109   110 1   
   144   106   107 1   
   145   146   147 1   
   146   143   144 1   
   147   143   145 1   
   148   140   141 1   
   149   138   139 1   
   150   136   137 1   
   151   134   135 1   
   152   132   133 1   
   153   130   131 1   
   154   127   128 1   
@<TRIPOS>SUBSTRUCTURE
     1 MGO         1 TEMP              0 ****  ****    0 ROOT
