@<TRIPOS>MOLECULE
Cpptraj
  126   132     1     0     0
SMALL
No Charge or Current Charge


@<TRIPOS>ATOM
      1 C1          20.0140    14.3430    35.1310 C.3        1 MGO       0.304529
      2 H1          20.8590    13.6430    35.2830 H          1 MGO       0.090782
      3 O1          20.4860    15.6720    34.7220 O.3        1 MGO      -0.453070
      4 C2          19.1220    13.7930    34.0230 C.3        1 MGO       0.092199
      5 H2          18.7770    12.7890    34.2850 H          1 MGO       0.102926
      6 O2          19.8690    13.7490    32.7950 O.3        1 MGO      -0.586639
      7 HO2         20.6300    14.3450    32.8580 H          1 MGO       0.425065
      8 C3          17.9410    14.7130    33.7900 C.3        1 MGO       0.093211
      9 H3          18.3010    15.6720    33.4090 H          1 MGO       0.064468
     10 O3          17.0990    14.0720    32.8190 O.3        1 MGO      -0.592567
     11 HO3         17.6880    13.6410    32.1850 H          1 MGO       0.421017
     12 C4          17.1550    14.9330    35.0750 C.3        1 MGO       0.127621
     13 H4          16.6400    14.0070    35.3440 H          1 MGO       0.080661
     14 C5          18.0640    15.3900    36.2290 C.3        1 MGO       0.104343
     15 H5          18.4670    16.3690    35.9610 H          1 MGO       0.068516
     16 O5          19.2090    14.4480    36.3620 O.3        1 MGO      -0.427383
     17 C6          17.4130    15.5660    37.6090 C.3        1 MGO       0.141081
     18 H61         17.0810    16.5990    37.7300 H          1 MGO       0.057384
     19 H62         18.1380    15.3500    38.3980 H          1 MGO       0.057384
     20 O6          16.2780    14.7020    37.7510 O.3        1 MGO      -0.593555
     21 HO6         15.4990    15.1780    37.4360 H          1 MGO       0.422027
     22 C1          23.8430    18.1130    35.0060 C.3        2 MGO       0.304529
     23 H1          24.8750    18.4950    35.1320 H          2 MGO       0.090782
     24 O1          22.9190    19.1860    34.6180 O.3        2 MGO      -0.453070
     25 C2          23.8470    17.0640    33.9000 C.3        2 MGO       0.092199
     26 H2          24.5500    16.2630    34.1470 H          2 MGO       0.102926
     27 O2          24.2270    17.6860    32.6620 O.3        2 MGO      -0.586639
     28 HO2         24.0940    18.6430    32.7250 H          2 MGO       0.425065
     29 C3          22.4530    16.5010    33.7030 C.3        2 MGO       0.093211
     30 H3          21.7930    17.2920    33.3360 H          2 MGO       0.064468
     31 O3          22.5620    15.4480    32.7310 O.3        2 MGO      -0.592567
     32 HO3         23.2150    15.7420    32.0790 H          2 MGO       0.421017
     33 C4          21.9010    15.9320    35.0030 C.3        2 MGO       0.127621
     34 H4          22.4520    15.0250    35.2600 H          2 MGO       0.080661
     35 C5          21.9890    16.9520    36.1540 C.3        2 MGO       0.104343
     36 H5          21.3360    17.7890    35.9000 H          2 MGO       0.068516
     37 O5          23.3800    17.4720    36.2500 O.3        2 MGO      -0.427383
     38 C6          21.5450    16.4770    37.5450 C.3        2 MGO       0.141081
     39 H61         20.4880    16.7070    37.6920 H          2 MGO       0.057384
     40 H62         22.1140    16.9990    38.3190 H          2 MGO       0.057384
     41 O6          21.7300    15.0630    37.6860 O.3        2 MGO      -0.593555
     42 HO6         20.9200    14.6250    37.3920 H          2 MGO       0.422027
     43 C1          22.4910    23.3150    34.9030 C.3        3 MGO       0.304529
     44 H1          22.6810    24.3990    35.0220 H          3 MGO       0.090782
     45 O1          21.0910    23.0500    34.5490 O.3        3 MGO      -0.453070
     46 C2          23.3740    22.7900    33.7760 C.3        3 MGO       0.092199
     47 H2          24.4250    22.9980    33.9960 H          3 MGO       0.102926
     48 O2          22.9970    23.4280    32.5450 O.3        3 MGO      -0.586639
     49 HO2         22.1020    23.7920    32.6300 H          3 MGO       0.425065
     50 C3          23.1600    21.3010    33.5880 C.3        3 MGO       0.093211
     51 H3          22.1370    21.1250    33.2460 H          3 MGO       0.064468
     52 O3          24.1020    20.8670    32.5930 O.3        3 MGO      -0.592567
     53 HO3         24.1570    21.5780    31.9390 H          3 MGO       0.421017
     54 C4          23.4080    20.5420    34.8830 C.3        3 MGO       0.127621
     55 H4          24.4760    20.5660    35.1150 H          3 MGO       0.080661
     56 C5          22.5980    21.1310    36.0530 C.3        3 MGO       0.104343
     57 H5          21.5410    20.9840    35.8250 H          3 MGO       0.068516
     58 O5          22.8450    22.5950    36.1410 O.3        3 MGO      -0.427383
     59 C6          22.8200    20.5130    37.4410 C.3        3 MGO       0.141081
     60 H61         22.0960    19.7120    37.6080 H          3 MGO       0.057384
     61 H62         22.6730    21.2680    38.2170 H          3 MGO       0.057384
     62 O6          24.1400    19.9650    37.5510 O.3        3 MGO      -0.593555
     63 HO6         24.1060    19.0450    37.2590 H          3 MGO       0.422027
     64 C1          17.3100    24.7460    34.9240 C.3        4 MGO       0.304529
     65 H1          16.4680    25.4530    35.0620 H          4 MGO       0.090782
     66 O1          16.8300    23.4000    34.5850 O.3        4 MGO      -0.453070
     67 C2          18.1780    25.2460    33.7740 C.3        4 MGO       0.092199
     68 H2          18.5280    26.2600    33.9830 H          4 MGO       0.102926
     69 O2          17.4070    25.2340    32.5620 O.3        4 MGO      -0.586639
     70 HO2         16.6470    24.6420    32.6670 H          4 MGO       0.425065
     71 C3          19.3550    24.3160    33.5590 C.3        4 MGO       0.093211
     72 H3          18.9870    23.3400    33.2280 H          4 MGO       0.064468
     73 O3          20.1770    24.9100    32.5420 O.3        4 MGO      -0.592567
     74 HO3         19.5740    25.3130    31.9020 H          4 MGO       0.421017
     75 C4          20.1680    24.1530    34.8350 C.3        4 MGO       0.127621
     76 H4          20.6870    25.0890    35.0520 H          4 MGO       0.080661
     77 C5          19.2830    23.7490    36.0280 C.3        4 MGO       0.104343
     78 H5          18.8750    22.7600    35.8120 H          4 MGO       0.068516
     79 O5          18.1410    24.6950    36.1410 O.3        4 MGO      -0.427383
     80 C6          19.9620    23.6360    37.4000 C.3        4 MGO       0.141081
     81 H61         20.2990    22.6090    37.5610 H          4 MGO       0.057384
     82 H62         19.2550    23.8870    38.1930 H          4 MGO       0.057384
     83 O6          21.0990    24.5040    37.4800 O.3        4 MGO      -0.593555
     84 HO6         21.8720    24.0140    37.1700 H          4 MGO       0.422027
     85 C1          13.4810    20.9760    35.0490 C.3        5 MGO       0.304529
     86 H1          12.4520    20.6010    35.2140 H          5 MGO       0.090782
     87 O1          14.3990    19.8870    34.6900 O.3        5 MGO      -0.453070
     88 C2          13.4540    21.9740    33.8970 C.3        5 MGO       0.092199
     89 H2          12.7560    22.7860    34.1220 H          5 MGO       0.102926
     90 O2          13.0480    21.2970    32.6970 O.3        5 MGO      -0.586639
     91 HO2         13.1840    20.3440    32.8010 H          5 MGO       0.425065
     92 C3          14.8420    22.5280    33.6460 C.3        5 MGO       0.093211
     93 H3          15.4950    21.7200    33.3010 H          5 MGO       0.064468
     94 O3          14.7120    23.5350    32.6300 O.3        5 MGO      -0.592567
     95 HO3         14.0480    23.2130    32.0070 H          5 MGO       0.421017
     96 C4          15.4220    23.1540    34.9070 C.3        5 MGO       0.127621
     97 H4          14.8750    24.0720    35.1340 H          5 MGO       0.080661
     98 C5          15.3580    22.1880    36.1040 C.3        5 MGO       0.104343
     99 H5          16.0050    21.3390    35.8750 H          5 MGO       0.068516
    100 O5          13.9710    21.6730    36.2530 O.3        5 MGO      -0.427383
    101 C6          15.8300    22.7240    37.4630 C.3        5 MGO       0.141081
    102 H61         16.8910    22.5010    37.5980 H          5 MGO       0.057384
    103 H62         15.2780    22.2390    38.2720 H          5 MGO       0.057384
    104 O6          15.6480    24.1430    37.5440 O.3        5 MGO      -0.593555
    105 HO6         16.4510    24.5660    37.2140 H          5 MGO       0.422027
    106 C1          14.8340    15.7740    35.1530 C.3        6 MGO       0.304529
    107 H1          14.6470    14.6960    35.3260 H          6 MGO       0.090782
    108 O1          16.2260    16.0220    34.7580 O.3        6 MGO      -0.453070
    109 C2          13.9270    16.2490    34.0220 C.3        6 MGO       0.092199
    110 H2          12.8810    16.0510    34.2730 H          6 MGO       0.102926
    111 O2          14.2790    15.5550    32.8140 O.3        6 MGO      -0.586639
    112 HO2         15.1760    15.1950    32.8960 H          6 MGO       0.425065
    113 C3          14.1360    17.7260    33.7620 C.3        6 MGO       0.093211
    114 H3          15.1530    17.8860    33.3920 H          6 MGO       0.064468
    115 O3          13.1730    18.1160    32.7690 O.3        6 MGO      -0.592567
    116 HO3         13.1050    17.3770    32.1490 H          6 MGO       0.421017
    117 C4          13.9150    18.5440    35.0270 C.3        6 MGO       0.127621
    118 H4          12.8520    18.5310    35.2820 H          6 MGO       0.080661
    119 C5          14.7490    18.0080    36.2050 C.3        6 MGO       0.104343
    120 H5          15.8020    18.1440    35.9490 H          6 MGO       0.068516
    121 O5          14.5050    16.5490    36.3630 O.3        6 MGO      -0.427383
    122 C6          14.5560    18.6890    37.5680 C.3        6 MGO       0.141081
    123 H61         15.2830    19.4960    37.6830 H          6 MGO       0.057384
    124 H62         14.7200    17.9690    38.3740 H          6 MGO       0.057384
    125 O6          13.2380    19.2410    37.6810 O.3        6 MGO      -0.593555
    126 HO6         13.2650    20.1480    37.3470 H          6 MGO       0.422027
@<TRIPOS>BOND
     1    17    20 1   
     2    14    16 1   
     3    14    17 1   
     4    12    14 1   
     5    12   108 1   
     6     8    10 1   
     7     8    12 1   
     8     4     6 1   
     9     4     8 1   
    10     3    33 1   
    11     1     3 1   
    12     1     4 1   
    13     1    16 1   
    14    38    41 1   
    15    35    37 1   
    16    35    38 1   
    17    33    35 1   
    18    29    31 1   
    19    29    33 1   
    20    25    27 1   
    21    25    29 1   
    22    24    54 1   
    23    22    24 1   
    24    22    25 1   
    25    22    37 1   
    26    59    62 1   
    27    56    58 1   
    28    56    59 1   
    29    54    56 1   
    30    50    52 1   
    31    50    54 1   
    32    46    48 1   
    33    46    50 1   
    34    45    75 1   
    35    43    45 1   
    36    43    46 1   
    37    43    58 1   
    38    80    83 1   
    39    77    79 1   
    40    77    80 1   
    41    75    77 1   
    42    71    73 1   
    43    71    75 1   
    44    67    69 1   
    45    67    71 1   
    46    66    96 1   
    47    64    66 1   
    48    64    67 1   
    49    64    79 1   
    50   101   104 1   
    51    98   100 1   
    52    98   101 1   
    53    96    98 1   
    54    92    94 1   
    55    92    96 1   
    56    88    90 1   
    57    88    92 1   
    58    87   117 1   
    59    85    87 1   
    60    85    88 1   
    61    85   100 1   
    62   122   125 1   
    63   119   121 1   
    64   119   122 1   
    65   117   119 1   
    66   113   115 1   
    67   113   117 1   
    68   109   111 1   
    69   109   113 1   
    70   106   108 1   
    71   106   109 1   
    72   106   121 1   
    73    20    21 1   
    74    17    18 1   
    75    17    19 1   
    76    14    15 1   
    77    12    13 1   
    78    10    11 1   
    79     8     9 1   
    80     6     7 1   
    81     4     5 1   
    82     1     2 1   
    83    41    42 1   
    84    38    39 1   
    85    38    40 1   
    86    35    36 1   
    87    33    34 1   
    88    31    32 1   
    89    29    30 1   
    90    27    28 1   
    91    25    26 1   
    92    22    23 1   
    93    62    63 1   
    94    59    60 1   
    95    59    61 1   
    96    56    57 1   
    97    54    55 1   
    98    52    53 1   
    99    50    51 1   
   100    48    49 1   
   101    46    47 1   
   102    43    44 1   
   103    83    84 1   
   104    80    81 1   
   105    80    82 1   
   106    77    78 1   
   107    75    76 1   
   108    73    74 1   
   109    71    72 1   
   110    69    70 1   
   111    67    68 1   
   112    64    65 1   
   113   104   105 1   
   114   101   102 1   
   115   101   103 1   
   116    98    99 1   
   117    96    97 1   
   118    94    95 1   
   119    92    93 1   
   120    90    91 1   
   121    88    89 1   
   122    85    86 1   
   123   125   126 1   
   124   122   123 1   
   125   122   124 1   
   126   119   120 1   
   127   117   118 1   
   128   115   116 1   
   129   113   114 1   
   130   111   112 1   
   131   109   110 1   
   132   106   107 1   
@<TRIPOS>SUBSTRUCTURE
     1 MGO         1 TEMP              0 ****  ****    0 ROOT
