@<TRIPOS>MOLECULE
Cpptraj generated mol2 file.
   20    19     1     0     0
SMALL
USER_CHARGES


@<TRIPOS>ATOM
      1 N1         18.5470   19.5280   39.3140 n4         1 PAM     -0.839354
      2 H1         17.5180   19.5050   39.4030 hn         1 PAM      0.461935
      3 H2         18.8850   18.5560   39.4030 hn         1 PAM      0.461935
      4 HN11       18.9110   20.0520   40.1270 hn         1 PAM      0.461935
      5 C1         18.9810   20.1540   38.0080 c3         1 PAM      0.098829
      6 H3         20.0740   20.1730   38.0030 hx         1 PAM      0.113733
      7 H4         18.6170   21.1840   38.0030 hx         1 PAM      0.113733
      8 C2         18.4650   19.4100   36.7620 c3         1 PAM     -0.111367
      9 H5         18.8230   18.3770   36.7790 hc         1 PAM      0.069720
     10 H6         17.3720   19.3830   36.7790 hc         1 PAM      0.069720
     11 C3         18.9470   20.1050   35.4720 c3         1 PAM     -0.080376
     12 H7         20.0400   20.1330   35.4580 hc         1 PAM      0.057717
     13 H8         18.5910   21.1380   35.4580 hc         1 PAM      0.057717
     14 C4         18.4370   19.3690   34.2140 c3         1 PAM     -0.078377
     15 H9         18.7930   18.3360   34.2220 hc         1 PAM      0.048714
     16 H10        17.3440   19.3420   34.2220 hc         1 PAM      0.048714
     17 C5         18.9180   20.0620   32.9260 c3         1 PAM     -0.098071
     18 H11        20.0090   20.0790   32.8810 hc         1 PAM      0.047714
     19 H12        18.5470   19.5280   32.0490 hc         1 PAM      0.047714
     20 H13        18.5520   21.0910   32.8810 hc         1 PAM      0.047715
@<TRIPOS>BOND
    1    14    17 1
    2    11    14 1
    3     8    11 1
    4     5     8 1
    5     1     5 1
    6    17    18 1
    7    17    19 1
    8    17    20 1
    9    14    15 1
   10    14    16 1
   11    11    12 1
   12    11    13 1
   13     8     9 1
   14     8    10 1
   15     5     6 1
   16     5     7 1
   17     1     2 1
   18     1     3 1
   19     1     4 1
@<TRIPOS>SUBSTRUCTURE
      1 PAM               1 ****               0 ****  **** 
