@<TRIPOS>MOLECULE
PB4
   23    23     1     0     0
SMALL
bcc


@<TRIPOS>ATOM
      1 C1          0.6340    1.2830    7.0850  c        1 PB4      0.906399
      2 O1          1.2730    2.3260    7.0870  o        1 PB4     -0.851989
      3 O2          1.1030    0.2870    7.6180  o        1 PB4     -0.851989
      4 C2         -0.7680    1.2300    6.4320 c3        1 PB4     -0.199444
      5 H1         -1.3790    2.0820    6.7670 hc        1 PB4      0.022695
      6 H2         -1.3260    0.3350    6.7470 hc        1 PB4      0.022695
      7 C3         -0.6880    1.2580    4.8900 c3        1 PB4     -0.041409
      8 H3         -1.7030    1.3210    4.4850 hc        1 PB4      0.017696
      9 H4         -0.1570    2.1530    4.5570 hc        1 PB4      0.017696
     10 C4         -0.0000   -0.0000    4.3180 c3        1 PB4     -0.070116
     11 H5         -0.5130   -0.8940    4.6830 hc        1 PB4      0.077183
     12 H6          1.0300   -0.0570    4.6790 hc        1 PB4      0.077183
     13 C5          0.0010   -0.0030    2.7970 ca        1 PB4     -0.040309
     14 C6         -1.0480   -0.5980    2.0930 ca        1 PB4     -0.135030
     15 H7         -1.8730   -1.0620    2.6320 ha        1 PB4      0.138969
     16 C7         -1.0480   -0.5960    0.6990 ca        1 PB4     -0.138031
     17 H8         -1.8690   -1.0610    0.1540 ha        1 PB4      0.114475
     18 C8         -0.0000   -0.0000    0.0000 ca        1 PB4     -0.158035
     19 H9         -0.0010    0.0010   -1.0890 ha        1 PB4      0.110975
     20 C9          1.0490    0.5950    0.6990 ca        1 PB4     -0.138031
     21 H10         1.8690    1.0620    0.1550 ha        1 PB4      0.114475
     22 C10         1.0500    0.5940    2.0930 ca        1 PB4     -0.135030
     23 H11         1.8720    1.0630    2.6330 ha        1 PB4      0.138972
@<TRIPOS>BOND
     1    1    2 1   
     2    1    3 1   
     3    1    4 1   
     4    4    5 1   
     5    4    6 1   
     6    4    7 1   
     7    7    8 1   
     8    7    9 1   
     9    7   10 1   
    10   10   11 1   
    11   10   12 1   
    12   10   13 1   
    13   13   14 ar  
    14   13   22 ar  
    15   14   15 1   
    16   14   16 ar  
    17   16   17 1   
    18   16   18 ar  
    19   18   19 1   
    20   18   20 ar  
    21   20   21 1   
    22   20   22 ar  
    23   22   23 1   
@<TRIPOS>SUBSTRUCTURE
     1 PB4         1 TEMP              0 ****  ****    0 ROOT
