@<TRIPOS>MOLECULE
Cpptraj generated mol2 file.
  126   132     6     0     0
SMALL
USER_CHARGES


@<TRIPOS>ATOM
      1 C1         23.8690   15.3800   34.1120 c3         1 MGO      0.304529
      2 H1         24.9600   15.2630   34.2650 h2         1 MGO      0.090782
      3 O1         23.5290   16.7500   33.7090 os         1 MGO     -0.453070
      4 C2         23.4310   14.4340   32.9990 c3         1 MGO      0.092199
      5 H2         23.6990   13.4050   33.2560 h1         1 MGO      0.102926
      6 O2         24.0800   14.8160   31.7740 oh         1 MGO     -0.586639
      7 HO2        24.3850   15.7330   31.8410 ho         1 MGO      0.425065
      8 C3         21.9390   14.5480   32.7640 c3         1 MGO      0.093211
      9 H3         21.7100   15.5490   32.3870 h1         1 MGO      0.064468
     10 O3         21.5930   13.5530   31.7880 oh         1 MGO     -0.592567
     11 HO3        22.3230   13.5230   31.1550 ho         1 MGO      0.421017
     12 C4         21.1600   14.2910   34.0460 c3         1 MGO      0.127621
     13 H4         21.2430   13.2340   34.3100 h1         1 MGO      0.080661
     14 C5         21.6640   15.1700   35.2060 c3         1 MGO      0.104343
     15 H5         21.4590   16.2090   34.9420 h1         1 MGO      0.068516
     16 O5         23.1380   15.0170   35.3400 os         1 MGO     -0.427383
     17 C6         21.0220   14.9500   36.5830 c3         1 MGO      0.141081
     18 H61        20.1730   15.6270   36.7060 h1         1 MGO      0.057384
     19 H62        21.7440   15.1660   37.3740 h1         1 MGO      0.057384
     20 O6         20.5540   13.6010   36.7190 oh         1 MGO     -0.593555
     21 HO6        19.6420   13.5690   36.4020 ho         1 MGO      0.422027
     22 C1         24.9750   20.6390   34.0130 c3         2 MGO      0.304529
     23 H1         25.6250   21.5270   34.1440 h2         2 MGO      0.090782
     24 O1         23.6130   21.0240   33.6240 os         2 MGO     -0.453070
     25 C2         25.5600   19.7720   32.9040 c3         2 MGO      0.092199
     26 H2         26.5890   19.4920   33.1500 h1         2 MGO      0.102926
     27 O2         25.5350   20.5060   31.6690 oh         2 MGO     -0.586639
     28 HO2        24.8950   21.2300   31.7340 ho         2 MGO      0.425065
     29 C3         24.7110   18.5330   32.7000 c3         2 MGO      0.093211
     30 H3         23.7240   18.8290   32.3320 h1         2 MGO      0.064468
     31 O3         25.3860   17.7210   31.7250 oh         2 MGO     -0.592567
     32 HO3        25.7670   18.3300   31.0770 ho         2 MGO      0.421017
     33 C4         24.5630   17.7480   33.9950 c3         2 MGO      0.127621
     34 H4         25.5240   17.2950   34.2520 h1         2 MGO      0.080661
     35 C5         24.0710   18.6410   35.1500 c3         2 MGO      0.104343
     36 H5         23.0650   18.9790   34.8960 h1         2 MGO      0.068516
     37 O5         24.9420   19.8430   35.2530 os         2 MGO     -0.427383
     38 C6         23.9610   17.9940   36.5380 c3         2 MGO      0.141081
     39 H61        22.9530   17.6000   36.6820 h1         2 MGO      0.057384
     40 H62        24.1460   18.7390   37.3160 h1         2 MGO      0.057384
     41 O6         24.8960   16.9170   36.6750 oh         2 MGO     -0.593555
     42 HO6        24.4640   16.1060   36.3770 ho         2 MGO      0.422027
     43 C1         20.9730   24.2260   33.9200 c3         3 MGO      0.304529
     44 H1         20.5320   25.2340   34.0430 h2         3 MGO      0.090782
     45 O1         19.9540   23.2340   33.5600 os         3 MGO     -0.453070
     46 C2         22.0010   24.2820   32.7950 c3         3 MGO      0.092199
     47 H2         22.7610   25.0360   33.0200 h1         3 MGO      0.102926
     48 O2         21.3360   24.6110   31.5650 oh         3 MGO     -0.586639
     49 HO2        20.3890   24.4190   31.6470 ho         3 MGO      0.425065
     50 C3         22.6460   22.9250   32.6010 c3         3 MGO      0.093211
     51 H3         21.8910   22.2130   32.2550 h1         3 MGO      0.064468
     52 O3         23.6720   23.0880   31.6090 oh         3 MGO     -0.592567
     53 HO3        23.3270   23.7140   30.9580 ho         3 MGO      0.421017
     54 C4         23.2700   22.4220   33.8950 c3         3 MGO      0.127621
     55 H4         24.1470   23.0320   34.1310 h1         3 MGO      0.080661
     56 C5         22.2680   22.4610   35.0640 c3         3 MGO      0.104343
     57 H5         21.4690   21.7540   34.8320 h1         3 MGO      0.068516
     58 O5         21.6640   23.8170   35.1570 os         3 MGO     -0.427383
     59 C6         22.7920   22.0620   36.4510 c3         3 MGO      0.141081
     60 H61        22.6320   20.9940   36.6120 h1         3 MGO      0.057384
     61 H62        22.2510   22.6060   37.2280 h1         3 MGO      0.057384
     62 O6         24.1960   22.3350   36.5640 oh         3 MGO     -0.593555
     63 HO6        24.6760   21.5500   36.2700 ho         3 MGO      0.422027
     64 C1         15.8650   22.5550   33.9250 c3         4 MGO      0.304529
     65 H1         14.7730   22.6780   34.0620 h2         4 MGO      0.090782
     66 O1         16.2100   21.1700   33.5810 os         4 MGO     -0.453070
     67 C2         16.3140   23.4570   32.7800 c3         4 MGO      0.092199
     68 H2         16.0450   24.4950   32.9940 h1         4 MGO      0.102926
     69 O2         15.6800   23.0260   31.5650 oh         4 MGO     -0.586639
     70 HO2        15.3740   22.1120   31.6650 ho         4 MGO      0.425065
     71 C3         17.8090   23.3330   32.5660 c3         4 MGO      0.093211
     72 H3         18.0420   22.3180   32.2320 h1         4 MGO      0.064468
     73 O3         18.1670   24.2880   31.5550 oh         4 MGO     -0.592567
     74 HO3        17.4430   24.2930   30.9130 ho         4 MGO      0.421017
     75 C4         18.5740   23.6410   33.8450 c3         4 MGO      0.127621
     76 H4         18.4890   24.7070   34.0670 h1         4 MGO      0.080661
     77 C5         18.0580   22.8090   35.0330 c3         4 MGO      0.104343
     78 H5         18.2660   21.7600   34.8140 h1         4 MGO      0.068516
     79 O5         16.5830   22.9660   35.1450 os         4 MGO     -0.427383
     80 C6         18.6850   23.0840   36.4080 c3         4 MGO      0.141081
     81 H61        19.5330   22.4140   36.5670 h1         4 MGO      0.057384
     82 H62        17.9550   22.9000   37.1990 h1         4 MGO      0.057384
     83 O6         19.1520   24.4370   36.4950 oh         4 MGO     -0.593555
     84 HO6        20.0680   24.4570   36.1870 ho         4 MGO      0.422027
     85 C1         14.7580   17.2960   34.0250 c3         5 MGO      0.304529
     86 H1         14.1080   16.4140   34.1850 h2         5 MGO      0.090782
     87 O1         16.1260   16.8970   33.6660 os         5 MGO     -0.453070
     88 C2         14.1860   18.1180   32.8750 c3         5 MGO      0.092199
     89 H2         13.1550   18.4080   33.1000 h1         5 MGO      0.102926
     90 O2         14.2240   17.3350   31.6710 oh         5 MGO     -0.586639
     91 HO2        14.8640   16.6150   31.7730 ho         5 MGO      0.425065
     92 C3         15.0370   19.3480   32.6310 c3         5 MGO      0.093211
     93 H3         16.0280   19.0370   32.2860 h1         5 MGO      0.064468
     94 O3         14.3730   20.1200   31.6170 oh         5 MGO     -0.592567
     95 HO3        13.9990   19.4870   30.9910 ho         5 MGO      0.421017
     96 C4         15.1720   20.1840   33.8960 c3         5 MGO      0.127621
     97 H4         14.2080   20.6460   34.1240 h1         5 MGO      0.080661
     98 C5         15.6510   19.3380   35.0900 c3         5 MGO      0.104343
     99 H5         16.6600   18.9900   34.8610 h1         5 MGO      0.068516
    100 O5         14.7790   18.1420   35.2320 os         5 MGO     -0.427383
    101 C6         15.7450   20.0400   36.4530 c3         5 MGO      0.141081
    102 H61        16.7530   20.4400   36.5910 h1         5 MGO      0.057384
    103 H62        15.5530   19.3270   37.2580 h1         5 MGO      0.057384
    104 O6         14.8090   21.1220   36.5370 oh         5 MGO     -0.593555
    105 HO6        15.2450   21.9190   36.2110 ho         5 MGO      0.422027
    106 C1         18.7610   13.7090   34.1180 c3         6 MGO      0.304529
    107 H1         19.2010   12.7060   34.2870 h2         6 MGO      0.090782
    108 O1         19.7850   14.6860   33.7290 os         6 MGO     -0.453070
    109 C2         17.7450   13.6080   32.9850 c3         6 MGO      0.092199
    110 H2         16.9820   12.8630   33.2320 h1         6 MGO      0.102926
    111 O2         18.4240   13.2310   31.7760 oh         6 MGO     -0.586639
    112 HO2        19.3690   13.4260   31.8610 ho         6 MGO      0.425065
    113 C3         17.1020   14.9560   32.7300 c3         6 MGO      0.093211
    114 H3         17.8620   15.6530   32.3640 h1         6 MGO      0.064468
    115 O3         16.0870   14.7530   31.7350 oh         6 MGO     -0.592567
    116 HO3        16.4390   14.1020   31.1120 ho         6 MGO      0.421017
    117 C4         16.4650   15.5090   33.9970 c3         6 MGO      0.127621
    118 H4         15.5860   14.9100   34.2470 h1         6 MGO      0.080661
    119 C5         17.4540   15.5190   35.1760 c3         6 MGO      0.104343
    120 H5         18.2570   16.2150   34.9250 h1         6 MGO      0.068516
    121 O5         18.0570   14.1670   35.3290 os         6 MGO     -0.427383
    122 C6         16.9150   15.9730   36.5400 c3         6 MGO      0.141081
    123 H61        17.0740   17.0470   36.6610 h1         6 MGO      0.057384
    124 H62        17.4480   15.4600   37.3450 h1         6 MGO      0.057384
    125 O6         15.5110   15.7040   36.6500 oh         6 MGO     -0.593555
    126 HO6        15.0330   16.4760   36.3190 ho         6 MGO      0.422027
@<TRIPOS>BOND
    1    17    20 1
    2    14    16 1
    3    14    17 1
    4    12    14 1
    5    12   108 1
    6     8    10 1
    7     8    12 1
    8     4     6 1
    9     4     8 1
   10     3    33 1
   11     1     3 1
   12     1     4 1
   13     1    16 1
   14    38    41 1
   15    35    37 1
   16    35    38 1
   17    33    35 1
   18    29    31 1
   19    29    33 1
   20    25    27 1
   21    25    29 1
   22    24    54 1
   23    22    24 1
   24    22    25 1
   25    22    37 1
   26    59    62 1
   27    56    58 1
   28    56    59 1
   29    54    56 1
   30    50    52 1
   31    50    54 1
   32    46    48 1
   33    46    50 1
   34    45    75 1
   35    43    45 1
   36    43    46 1
   37    43    58 1
   38    80    83 1
   39    77    79 1
   40    77    80 1
   41    75    77 1
   42    71    73 1
   43    71    75 1
   44    67    69 1
   45    67    71 1
   46    66    96 1
   47    64    66 1
   48    64    67 1
   49    64    79 1
   50   101   104 1
   51    98   100 1
   52    98   101 1
   53    96    98 1
   54    92    94 1
   55    92    96 1
   56    88    90 1
   57    88    92 1
   58    87   117 1
   59    85    87 1
   60    85    88 1
   61    85   100 1
   62   122   125 1
   63   119   121 1
   64   119   122 1
   65   117   119 1
   66   113   115 1
   67   113   117 1
   68   109   111 1
   69   109   113 1
   70   106   108 1
   71   106   109 1
   72   106   121 1
   73    20    21 1
   74    17    18 1
   75    17    19 1
   76    14    15 1
   77    12    13 1
   78    10    11 1
   79     8     9 1
   80     6     7 1
   81     4     5 1
   82     1     2 1
   83    41    42 1
   84    38    39 1
   85    38    40 1
   86    35    36 1
   87    33    34 1
   88    31    32 1
   89    29    30 1
   90    27    28 1
   91    25    26 1
   92    22    23 1
   93    62    63 1
   94    59    60 1
   95    59    61 1
   96    56    57 1
   97    54    55 1
   98    52    53 1
   99    50    51 1
  100    48    49 1
  101    46    47 1
  102    43    44 1
  103    83    84 1
  104    80    81 1
  105    80    82 1
  106    77    78 1
  107    75    76 1
  108    73    74 1
  109    71    72 1
  110    69    70 1
  111    67    68 1
  112    64    65 1
  113   104   105 1
  114   101   102 1
  115   101   103 1
  116    98    99 1
  117    96    97 1
  118    94    95 1
  119    92    93 1
  120    90    91 1
  121    88    89 1
  122    85    86 1
  123   125   126 1
  124   122   123 1
  125   122   124 1
  126   119   120 1
  127   117   118 1
  128   115   116 1
  129   113   114 1
  130   111   112 1
  131   109   110 1
  132   106   107 1
@<TRIPOS>SUBSTRUCTURE
      1 MGO               1 ****               0 ****  **** 
      2 MGO              22 ****               0 ****  **** 
      3 MGO              43 ****               0 ****  **** 
      4 MGO              64 ****               0 ****  **** 
      5 MGO              85 ****               0 ****  **** 
      6 MGO             106 ****               0 ****  **** 
