@<TRIPOS>MOLECULE
Cpptraj generated mol2 file.
   26    25     1     0     0
SMALL
USER_CHARGES


@<TRIPOS>ATOM
      1 C1         19.9280   18.8000   31.8620 c3         1 MHA     -0.097075
      2 H3         19.9200   19.4350   30.9740 hc         1 MHA      0.043378
      3 H4         20.8140   18.1620   31.8190 hc         1 MHA      0.043378
      4 H5         19.0400   18.1650   31.8390 hc         1 MHA      0.043378
      5 C2         19.9440   19.6660   33.1360 c3         1 MHA     -0.079379
      6 H6         19.0630   20.3120   33.1420 hc         1 MHA      0.045212
      7 H7         20.8260   20.3100   33.1220 hc         1 MHA      0.045212
      8 C3         19.9570   18.7920   34.4070 c3         1 MHA     -0.081379
      9 H8         19.0730   18.1480   34.4150 hc         1 MHA      0.049213
     10 H9         20.8370   18.1450   34.3970 hc         1 MHA      0.049213
     11 C4         19.9710   19.6610   35.6840 c3         1 MHA     -0.079379
     12 H10        19.0870   20.3050   35.6940 hc         1 MHA      0.055714
     13 H11        20.8520   20.3070   35.6670 hc         1 MHA      0.055714
     14 C5         19.9830   18.7850   36.9560 c3         1 MHA     -0.109372
     15 H12        19.1220   18.1130   36.9260 hc         1 MHA      0.069218
     16 H13        20.8800   18.1590   36.9660 hc         1 MHA      0.069218
     17 C6         19.9170   19.6280   38.2500 c3         1 MHA      0.128533
     18 H14        20.8050   20.2650   38.2990 hx         1 MHA      0.111729
     19 C7         18.6680   20.5210   38.2090 c3         1 MHA     -0.138064
     20 H15        17.7540   19.9220   38.1620 hc         1 MHA      0.082721
     21 H16        18.6920   21.1760   37.3340 hc         1 MHA      0.082721
     22 H17        18.6160   21.1580   39.0970 hc         1 MHA      0.082721
     23 N1         19.9280   18.8000   39.5010 n4         1 MHA     -0.847381
     24 H1         20.7850   18.2290   39.5720 hn         1 MHA      0.458252
     25 H2         19.8880   19.3940   40.3440 hn         1 MHA      0.458252
     26 HN11       19.1210   18.1590   39.5350 hn         1 MHA      0.458252
@<TRIPOS>BOND
    1    17    19 1
    2    17    23 1
    3    14    17 1
    4    11    14 1
    5     8    11 1
    6     5     8 1
    7     1     5 1
    8    23    24 1
    9    23    25 1
   10    23    26 1
   11    19    20 1
   12    19    21 1
   13    19    22 1
   14    17    18 1
   15    14    15 1
   16    14    16 1
   17    11    12 1
   18    11    13 1
   19     8     9 1
   20     8    10 1
   21     5     6 1
   22     5     7 1
   23     1     2 1
   24     1     3 1
   25     1     4 1
@<TRIPOS>SUBSTRUCTURE
      1 MHA               1 ****               0 ****  **** 
