@<TRIPOS>MOLECULE
M4T
   22    22     1     0     0
SMALL
bcc


@<TRIPOS>ATOM
      1 C1         -0.0000    0.0000    0.0000 c3       11 M4T     -0.090183
      2 H2         -1.0090   -0.1290   -0.3970 hc       11 M4T      0.034002
      3 H3          0.2470    1.0620   -0.0480 hc       11 M4T      0.034002
      4 H4          0.7830   -0.5810   -0.4920 hc       11 M4T      0.034002
      5 C2         -0.0310   -0.5370    1.4620 c3       11 M4T     -0.067762
      6 H5         -0.0180   -1.6060    1.2430 hc       11 M4T      0.049654
      7 C3         -1.3120   -0.1410    2.1580 c3       11 M4T     -0.072466
      8 H6         -1.3970    0.9350    1.9950 hc       11 M4T      0.041912
      9 H7         -2.1840   -0.5730    1.6640 hc       11 M4T      0.041912
     10 C4         -1.3220   -0.4750    3.6670 c3       11 M4T     -0.093486
     11 H8         -1.2780   -1.5620    3.7560 hc       11 M4T      0.050154
     12 H9         -2.1990    0.0090    4.1030 hc       11 M4T      0.050154
     13 C5          0.0000    0.0000    4.3500 c3       11 M4T      0.141970
     14 H10        -0.0580    1.0910    4.3720 h1       11 M4T      0.031671
     15 C6          1.1740   -0.5400    3.6830 c3       11 M4T     -0.093486
     16 H11         1.2150   -1.6190    3.8510 hc       11 M4T      0.050154
     17 H12         2.1300   -0.1810    4.0680 hc       11 M4T      0.050154
     18 C7          1.2810   -0.1980    2.1900 c3       11 M4T     -0.072466
     19 H13         2.1040   -0.7110    1.6870 hc       11 M4T      0.041912
     20 H14         1.5050    0.8690    2.1400 hc       11 M4T      0.041912
     21 O1         -0.0670   -0.4750    5.6300 oh       11 M4T     -0.601350
     22 H1         -1.0310   -0.4280    5.7630 ho       11 M4T      0.397634
@<TRIPOS>BOND
     1    1    2 1   
     2    1    3 1   
     3    1    4 1   
     4    1    5 1   
     5    5    6 1   
     6    5    7 1   
     7    5   18 1   
     8    7    8 1   
     9    7    9 1   
    10    7   10 1   
    11   10   11 1   
    12   10   12 1   
    13   10   13 1   
    14   13   14 1   
    15   13   15 1   
    16   13   21 1   
    17   15   16 1   
    18   15   17 1   
    19   15   18 1   
    20   18   19 1   
    21   18   20 1   
    22   21   22 1   
@<TRIPOS>SUBSTRUCTURE
     1 M4T         1 TEMP              0 ****  ****    0 ROOT
