@<TRIPOS>MOLECULE
Cpptraj generated mol2 file.
   17    16     1     0     0
SMALL
USER_CHARGES


@<TRIPOS>ATOM
      1 N1         19.8750   18.7530   38.7530 n4         1 BAM     -0.839600
      2 H1         20.8140   18.3290   38.8190 hn         1 BAM      0.461800
      3 H2         19.1880   17.9850   38.8190 hn         1 BAM      0.461800
      4 HN11       19.7500   19.3450   39.5900 hn         1 BAM      0.461800
      5 C1         19.7060   19.5480   37.4770 c3         1 BAM      0.098800
      6 H3         20.4430   20.3570   37.4970 hx         1 BAM      0.113700
      7 H4         18.7050   19.9890   37.4970 hx         1 BAM      0.113700
      8 C2         19.8850   18.7080   36.1980 c3         1 BAM     -0.112400
      9 H5         20.8820   18.2600   36.1900 hc         1 BAM      0.070700
     10 H6         19.1540   17.8940   36.1900 hc         1 BAM      0.070700
     11 C3         19.6990   19.5810   34.9400 c3         1 BAM     -0.076400
     12 H7         20.4280   20.3960   34.9450 hc         1 BAM      0.056700
     13 H8         18.7030   20.0300   34.9450 hc         1 BAM      0.056700
     14 C4         19.8750   18.7530   33.6530 c3         1 BAM     -0.101100
     15 H9         20.8750   18.3140   33.6100 hc         1 BAM      0.054367
     16 H10        19.7410   19.3870   32.7740 hc         1 BAM      0.054367
     17 H11        19.1390   17.9460   33.6100 hc         1 BAM      0.054366
@<TRIPOS>BOND
    1    11    14 1
    2     8    11 1
    3     5     8 1
    4     1     5 1
    5    14    15 1
    6    14    16 1
    7    14    17 1
    8    11    12 1
    9    11    13 1
   10     8     9 1
   11     8    10 1
   12     5     6 1
   13     5     7 1
   14     1     2 1
   15     1     3 1
   16     1     4 1
@<TRIPOS>SUBSTRUCTURE
      1 BAM               1 ****               0 ****  **** 
