@<TRIPOS>MOLECULE
Cpptraj
  126   132     1     0     0
SMALL
No Charge or Current Charge


@<TRIPOS>ATOM
      1 C1          21.6520    13.8580    35.9480 C.3        1 MGO       0.304529
      2 H1          21.3450    12.8030    35.8090 H          1 MGO       0.090782
      3 O1          20.5110    14.7060    36.3140 O.3        1 MGO      -0.453070
      4 C2          22.6720    13.9210    37.0810 C.3        1 MGO       0.092199
      5 H2          23.5250    13.2750    36.8510 H          1 MGO       0.102926
      6 O2          22.0480    13.4910    38.3020 O.3        1 MGO      -0.586639
      7 HO2         21.0850    13.5600    38.2150 H          1 MGO       0.425065
      8 C3          23.1350    15.3470    37.2980 C.3        1 MGO       0.093211
      9 H3          22.2920    15.9490    37.6470 H          1 MGO       0.064468
     10 O3          24.1670    15.3030    38.2950 O.3        1 MGO      -0.592567
     11 HO3         23.9030    14.6290    38.9360 H          1 MGO       0.421017
     12 C4          23.6960    15.9440    36.0150 C.3        1 MGO       0.127621
     13 H4          24.6450    15.4570    35.7780 H          1 MGO       0.080661
     14 C5          22.7140    15.7940    34.8390 C.3        1 MGO       0.104343
     15 H5          21.8280    16.3870    35.0740 H          1 MGO       0.068516
     16 O5          22.2920    14.3710    34.7230 O.3        1 MGO      -0.427383
     17 C6          23.1900    16.2770    33.4610 C.3        1 MGO       0.141081
     18 H61         22.8930    17.3170    33.3130 H          1 MGO       0.057384
     19 H62         22.7280    15.6780    32.6720 H          1 MGO       0.057384
     20 O6          24.6170    16.1900    33.3550 O.3        1 MGO      -0.593555
     21 HO6         24.9910    17.0250    33.6630 H          1 MGO       0.422027
     22 C1          16.3710    14.8550    35.9270 C.3        2 MGO       0.304529
     23 H1          15.3040    14.5930    35.7800 H          2 MGO       0.090782
     24 O1          16.5300    16.2680    36.2930 O.3        2 MGO      -0.453070
     25 C2          16.9260    14.0030    37.0630 C.3        2 MGO       0.092199
     26 H2          16.7940    12.9420    36.8330 H          2 MGO       0.102926
     27 O2          16.2340    14.3300    38.2790 O.3        2 MGO      -0.586639
     28 HO2         15.8120    15.1980    38.1890 H          2 MGO       0.425065
     29 C3          18.3910    14.3160    37.2890 C.3        2 MGO       0.093211
     30 H3          18.4890    15.3480    37.6400 H          2 MGO       0.064468
     31 O3          18.8640    13.4000    38.2910 O.3        2 MGO      -0.592567
     32 HO3         18.1420    13.2930    38.9270 H          2 MGO       0.421017
     33 C4          19.1980    14.1280    36.0130 C.3        2 MGO       0.127621
     34 H4          19.2520    13.0620    35.7770 H          2 MGO       0.080661
     35 C5          18.5840    14.9020    34.8310 C.3        2 MGO       0.104343
     36 H5          18.6540    15.9660    35.0670 H          2 MGO       0.068516
     37 O5          17.1430    14.5570    34.7070 O.3        2 MGO      -0.427383
     38 C6          19.2510    14.7300    33.4590 C.3        2 MGO       0.141081
     39 H61         20.0040    15.5070    33.3150 H          2 MGO       0.057384
     40 H62         18.5070    14.8310    32.6650 H          2 MGO       0.057384
     41 O6          19.8890    13.4510    33.3570 O.3        2 MGO      -0.593555
     42 HO6         20.7980    13.5450    33.6720 H          2 MGO       0.422027
     43 C1          14.5920    19.9280    35.8910 C.3        3 MGO       0.304529
     44 H1          13.8330    20.7190    35.7380 H          3 MGO       0.090782
     45 O1          15.8930    20.4950    36.2650 O.3        3 MGO      -0.453070
     46 C2          14.1250    19.0210    37.0240 C.3        3 MGO       0.092199
     47 H2          13.1420    18.6030    36.7880 H          3 MGO       0.102926
     48 O2          14.0520    19.7840    38.2390 O.3        3 MGO      -0.586639
     49 HO2         14.5940    20.5830    38.1530 H          3 MGO       0.425065
     50 C3          15.1260    17.9080    37.2580 C.3        3 MGO       0.093211
     51 H3          16.0670    18.3390    37.6140 H          3 MGO       0.064468
     52 O3          14.5630    17.0420    38.2560 O.3        3 MGO      -0.592567
     53 HO3         14.1050    17.6130    38.8880 H          3 MGO       0.421017
     54 C4          15.3760    17.1150    35.9830 C.3        3 MGO       0.127621
     55 H4          14.4820    16.5350    35.7400 H          3 MGO       0.080661
     56 C5          15.7480    18.0330    34.8040 C.3        3 MGO       0.104343
     57 H5          16.7020    18.5050    35.0460 H          3 MGO       0.068516
     58 O5          14.7290    19.1090    34.6710 O.3        3 MGO      -0.427383
     59 C6          15.9420    17.3700    33.4330 C.3        3 MGO       0.141081
     60 H61         16.9930    17.1070    33.2970 H          3 MGO       0.057384
     61 H62         15.6620    18.0640    32.6370 H          3 MGO       0.057384
     62 O6          15.1540    16.1770    33.3260 O.3        3 MGO      -0.593555
     63 HO6         15.6880    15.4380    33.6450 H          3 MGO       0.422027
     64 C1          18.0950    24.0040    35.8780 C.3        4 MGO       0.304529
     65 H1          18.4040    25.0570    35.7270 H          4 MGO       0.090782
     66 O1          19.2350    23.1610    36.2590 O.3        4 MGO      -0.453070
     67 C2          17.0690    23.9560    37.0040 C.3        4 MGO       0.092199
     68 H2          16.2180    24.5990    36.7620 H          4 MGO       0.102926
     69 O2          17.6860    24.3990    38.2230 O.3        4 MGO      -0.586639
     70 HO2         18.6500    24.3290    38.1430 H          4 MGO       0.425065
     71 C3          16.6050    22.5320    37.2350 C.3        4 MGO       0.093211
     72 H3          17.4460    21.9340    37.5970 H          4 MGO       0.064468
     73 O3          15.5670    22.5870    38.2260 O.3        4 MGO      -0.592567
     74 HO3         15.8270    23.2690    38.8600 H          4 MGO       0.421017
     75 C4          16.0520    21.9190    35.9560 C.3        4 MGO       0.127621
     76 H4          15.1040    22.4030    35.7080 H          4 MGO       0.080661
     77 C5          17.0410    22.0550    34.7850 C.3        4 MGO       0.104343
     78 H5          17.9250    21.4660    35.0320 H          4 MGO       0.068516
     79 O5          17.4640    23.4750    34.6540 O.3        4 MGO      -0.427383
     80 C6          16.5730    21.5560    33.4100 C.3        4 MGO       0.141081
     81 H61         16.8700    20.5130    33.2760 H          4 MGO       0.057384
     82 H62         17.0390    22.1440    32.6160 H          4 MGO       0.057384
     83 O6          15.1470    21.6420    33.2930 O.3        4 MGO      -0.593555
     84 HO6         14.7710    20.8090    33.6100 H          4 MGO       0.422027
     85 C1          23.3770    23.0080    35.8980 C.3        5 MGO       0.304529
     86 H1          24.4450    23.2670    35.7540 H          5 MGO       0.090782
     87 O1          23.2140    21.5990    36.2800 O.3        5 MGO      -0.453070
     88 C2          22.8160    23.8730    37.0210 C.3        5 MGO       0.092199
     89 H2          22.9480    24.9310    36.7790 H          5 MGO       0.102926
     90 O2          23.5010    23.5600    38.2450 O.3        5 MGO      -0.586639
     91 HO2         23.9220    22.6910    38.1670 H          5 MGO       0.425065
     92 C3          21.3490    23.5630    37.2430 C.3        5 MGO       0.093211
     93 H3          21.2490    22.5350    37.6050 H          5 MGO       0.064468
     94 O3          20.8710    24.4910    38.2300 O.3        5 MGO      -0.592567
     95 HO3         21.5880    24.6050    38.8690 H          5 MGO       0.421017
     96 C4          20.5500    23.7360    35.9590 C.3        5 MGO       0.127621
     97 H4          20.4970    24.7980    35.7100 H          5 MGO       0.080661
     98 C5          21.1700    22.9470    34.7910 C.3        5 MGO       0.104343
     99 H5          21.1000    21.8860    35.0390 H          5 MGO       0.068516
    100 O5          22.6120    23.2900    34.6700 O.3        5 MGO      -0.427383
    101 C6          20.5120    23.1030    33.4120 C.3        5 MGO       0.141081
    102 H61         19.7590    22.3230    33.2740 H          5 MGO       0.057384
    103 H62         21.2600    22.9920    32.6240 H          5 MGO       0.057384
    104 O6          19.8740    24.3800    33.2920 O.3        5 MGO      -0.593555
    105 HO6         18.9640    24.2900    33.6020 H          5 MGO       0.422027
    106 C1          25.1560    17.9350    35.9340 C.3        6 MGO       0.304529
    107 H1          25.9150    17.1410    35.7950 H          6 MGO       0.090782
    108 O1          23.8530    17.3710    36.3080 O.3        6 MGO      -0.453070
    109 C2          25.6170    18.8550    37.0590 C.3        6 MGO       0.092199
    110 H2          26.6010    19.2700    36.8240 H          6 MGO       0.102926
    111 O2          25.6810    18.1060    38.2840 O.3        6 MGO      -0.586639
    112 HO2         25.1400    17.3060    38.2040 H          6 MGO       0.425065
    113 C3          24.6140    19.9700    37.2740 C.3        6 MGO       0.093211
    114 H3          23.6720    19.5430    37.6290 H          6 MGO       0.064468
    115 O3          25.1720    20.8490    38.2640 O.3        6 MGO      -0.592567
    116 HO3         25.6250    20.2860    38.9060 H          6 MGO       0.421017
    117 C4          24.3720    20.7470    35.9880 C.3        6 MGO       0.127621
    118 H4          25.2680    21.3250    35.7440 H          6 MGO       0.080661
    119 C5          24.0070    19.8160    34.8180 C.3        6 MGO       0.104343
    120 H5          23.0510    19.3460    35.0600 H          6 MGO       0.068516
    121 O5          25.0260    18.7380    34.7050 O.3        6 MGO      -0.427383
    122 C6          23.8200    20.4620    33.4380 C.3        6 MGO       0.141081
    123 H61         22.7700    20.7240    33.2920 H          6 MGO       0.057384
    124 H62         24.1050    19.7590    32.6510 H          6 MGO       0.057384
    125 O6          24.6100    21.6540    33.3210 O.3        6 MGO      -0.593555
    126 HO6         24.0740    22.3970    33.6280 H          6 MGO       0.422027
@<TRIPOS>BOND
     1    17    20 1   
     2    14    16 1   
     3    14    17 1   
     4    12    14 1   
     5    12   108 1   
     6     8    10 1   
     7     8    12 1   
     8     4     6 1   
     9     4     8 1   
    10     3    33 1   
    11     1     3 1   
    12     1     4 1   
    13     1    16 1   
    14    38    41 1   
    15    35    37 1   
    16    35    38 1   
    17    33    35 1   
    18    29    31 1   
    19    29    33 1   
    20    25    27 1   
    21    25    29 1   
    22    24    54 1   
    23    22    24 1   
    24    22    25 1   
    25    22    37 1   
    26    59    62 1   
    27    56    58 1   
    28    56    59 1   
    29    54    56 1   
    30    50    52 1   
    31    50    54 1   
    32    46    48 1   
    33    46    50 1   
    34    45    75 1   
    35    43    45 1   
    36    43    46 1   
    37    43    58 1   
    38    80    83 1   
    39    77    79 1   
    40    77    80 1   
    41    75    77 1   
    42    71    73 1   
    43    71    75 1   
    44    67    69 1   
    45    67    71 1   
    46    66    96 1   
    47    64    66 1   
    48    64    67 1   
    49    64    79 1   
    50   101   104 1   
    51    98   100 1   
    52    98   101 1   
    53    96    98 1   
    54    92    94 1   
    55    92    96 1   
    56    88    90 1   
    57    88    92 1   
    58    87   117 1   
    59    85    87 1   
    60    85    88 1   
    61    85   100 1   
    62   122   125 1   
    63   119   121 1   
    64   119   122 1   
    65   117   119 1   
    66   113   115 1   
    67   113   117 1   
    68   109   111 1   
    69   109   113 1   
    70   106   108 1   
    71   106   109 1   
    72   106   121 1   
    73    20    21 1   
    74    17    18 1   
    75    17    19 1   
    76    14    15 1   
    77    12    13 1   
    78    10    11 1   
    79     8     9 1   
    80     6     7 1   
    81     4     5 1   
    82     1     2 1   
    83    41    42 1   
    84    38    39 1   
    85    38    40 1   
    86    35    36 1   
    87    33    34 1   
    88    31    32 1   
    89    29    30 1   
    90    27    28 1   
    91    25    26 1   
    92    22    23 1   
    93    62    63 1   
    94    59    60 1   
    95    59    61 1   
    96    56    57 1   
    97    54    55 1   
    98    52    53 1   
    99    50    51 1   
   100    48    49 1   
   101    46    47 1   
   102    43    44 1   
   103    83    84 1   
   104    80    81 1   
   105    80    82 1   
   106    77    78 1   
   107    75    76 1   
   108    73    74 1   
   109    71    72 1   
   110    69    70 1   
   111    67    68 1   
   112    64    65 1   
   113   104   105 1   
   114   101   102 1   
   115   101   103 1   
   116    98    99 1   
   117    96    97 1   
   118    94    95 1   
   119    92    93 1   
   120    90    91 1   
   121    88    89 1   
   122    85    86 1   
   123   125   126 1   
   124   122   123 1   
   125   122   124 1   
   126   119   120 1   
   127   117   118 1   
   128   115   116 1   
   129   113   114 1   
   130   111   112 1   
   131   109   110 1   
   132   106   107 1   
@<TRIPOS>SUBSTRUCTURE
     1 MGO         1 TEMP              0 ****  ****    0 ROOT
