@<TRIPOS>MOLECULE
Cpptraj
  126   132     1     0     0
SMALL
No Charge or Current Charge


@<TRIPOS>ATOM
      1 C1          19.1550    14.1530    33.2390 C.3        1 MGO       0.304529
      2 H1          18.4810    13.2860    33.0940 H          1 MGO       0.090782
      3 O1          18.4050    15.3580    33.6130 O.3        1 MGO      -0.453070
      4 C2          20.1270    13.8280    34.3680 C.3        1 MGO       0.092199
      5 H2          20.6810    12.9150    34.1330 H          1 MGO       0.102926
      6 O2          19.3880    13.6500    35.5890 O.3        1 MGO      -0.586639
      7 HO2         18.5180    14.0690    35.5050 H          1 MGO       0.425065
      8 C3          21.0810    14.9820    34.5920 C.3        1 MGO       0.093211
      9 H3          20.5200    15.8500    34.9480 H          1 MGO       0.064468
     10 O3          22.0260    14.5550    35.5860 O.3        1 MGO      -0.592567
     11 HO3         21.5330    14.0210    36.2240 H          1 MGO       0.421017
     12 C4          21.8220    15.3390    33.3120 C.3        1 MGO       0.127621
     13 H4          22.5260    14.5380    33.0690 H          1 MGO       0.080661
     14 C5          20.8530    15.5690    32.1370 C.3        1 MGO       0.104343
     15 H5          20.2480    16.4450    32.3790 H          1 MGO       0.068516
     16 O5          19.9370    14.4030    32.0150 O.3        1 MGO      -0.427383
     17 C6          21.4730    15.8520    30.7610 C.3        1 MGO       0.141081
     18 H61         21.5800    16.9300    30.6210 H          1 MGO       0.057384
     19 H62         20.8230    15.4710    29.9700 H          1 MGO       0.057384
     20 O6          22.7680    15.2470    30.6500 O.3        1 MGO      -0.593555
     21 HO6         23.4230    15.8840    30.9620 H          1 MGO       0.422027
     22 C1          14.6100    17.0230    33.2380 C.3        2 MGO       0.304529
     23 H1          13.5220    17.1730    33.0930 H          2 MGO       0.090782
     24 O1          15.2790    18.2760    33.6120 O.3        2 MGO      -0.453070
     25 C2          14.8130    16.0190    34.3680 C.3        2 MGO       0.092199
     26 H2          14.3000    15.0820    34.1320 H          2 MGO       0.102926
     27 O2          14.2910    16.5700    35.5880 O.3        2 MGO      -0.586639
     28 HO2         14.2180    17.5330    35.5040 H          2 MGO       0.425065
     29 C3          16.2910    15.7700    34.5920 C.3        2 MGO       0.093211
     30 H3          16.7620    16.6900    34.9480 H          2 MGO       0.064468
     31 O3          16.3940    14.7370    35.5860 O.3        2 MGO      -0.592567
     32 HO3         15.6840    14.8990    36.2240 H          2 MGO       0.421017
     33 C4          16.9720    15.3060    33.3120 C.3        2 MGO       0.127621
     34 H4          16.6300    14.2970    33.0690 H          2 MGO       0.080661
     35 C5          16.6860    16.2600    32.1370 C.3        2 MGO       0.104343
     36 H5          17.1420    17.2220    32.3790 H          2 MGO       0.068516
     37 O5          15.2180    16.4700    32.0140 O.3        2 MGO      -0.427383
     38 C6          17.2410    15.8640    30.7610 C.3        2 MGO       0.141081
     39 H61         18.2270    16.3100    30.6200 H          2 MGO       0.057384
     40 H62         16.5860    16.2360    29.9700 H          2 MGO       0.057384
     41 O6          17.3640    14.4400    30.6500 O.3        2 MGO      -0.593555
     42 HO6         18.2440    14.1910    30.9630 H          2 MGO       0.422027
     43 C1          14.8240    22.3940    33.2380 C.3        3 MGO       0.304529
     44 H1          14.4090    23.4100    33.0920 H          3 MGO       0.090782
     45 O1          16.2420    22.4410    33.6120 O.3        3 MGO      -0.453070
     46 C2          14.0560    21.7160    34.3670 C.3        3 MGO       0.092199
     47 H2          12.9880    21.6910    34.1310 H          3 MGO       0.102926
     48 O2          14.2700    22.4440    35.5870 O.3        3 MGO      -0.586639
     49 HO2         15.0680    22.9880    35.5030 H          3 MGO       0.425065
     50 C3          14.5780    20.3110    34.5910 C.3        3 MGO       0.093211
     51 H3          15.6110    20.3630    34.9470 H          3 MGO       0.064468
     52 O3          13.7350    19.7060    35.5860 O.3        3 MGO      -0.592567
     53 HO3         13.5200    20.4010    36.2220 H          3 MGO       0.421017
     54 C4          14.5170    19.4900    33.3110 C.3        3 MGO       0.127621
     55 H4          13.4720    19.2820    33.0670 H          3 MGO       0.080661
     56 C5          15.2000    20.2150    32.1360 C.3        3 MGO       0.104343
     57 H5          16.2610    20.3010    32.3780 H          3 MGO       0.068516
     58 O5          14.6490    21.5910    32.0130 O.3        3 MGO      -0.427383
     59 C6          15.1360    19.5360    30.7610 C.3        3 MGO       0.141081
     60 H61         16.0160    18.9050    30.6200 H          3 MGO       0.057384
     61 H62         15.1310    20.2890    29.9700 H          3 MGO       0.057384
     62 O6          13.9640    18.7180    30.6490 O.3        3 MGO      -0.593555
     63 HO6         14.1890    17.8320    30.9620 H          3 MGO       0.422027
     64 C1          19.5810    24.8950    33.2390 C.3        4 MGO       0.304529
     65 H1          20.2550    25.7620    33.0930 H          4 MGO       0.090782
     66 O1          20.3310    23.6890    33.6120 O.3        4 MGO      -0.453070
     67 C2          18.6090    25.2210    34.3680 C.3        4 MGO       0.092199
     68 H2          18.0540    26.1340    34.1320 H          4 MGO       0.102926
     69 O2          19.3470    25.3980    35.5870 O.3        4 MGO      -0.586639
     70 HO2         20.2170    24.9790    35.5040 H          4 MGO       0.425065
     71 C3          17.6540    24.0660    34.5920 C.3        4 MGO       0.093211
     72 H3          18.2160    23.1980    34.9480 H          4 MGO       0.064468
     73 O3          16.7100    24.4930    35.5860 O.3        4 MGO      -0.592567
     74 HO3         17.2030    25.0270    36.2230 H          4 MGO       0.421017
     75 C4          16.9140    23.7090    33.3110 C.3        4 MGO       0.127621
     76 H4          16.2110    24.5090    33.0680 H          4 MGO       0.080661
     77 C5          17.8830    23.4790    32.1370 C.3        4 MGO       0.104343
     78 H5          18.4880    22.6040    32.3790 H          4 MGO       0.068516
     79 O5          18.7980    24.6440    32.0140 O.3        4 MGO      -0.427383
     80 C6          17.2630    23.1960    30.7610 C.3        4 MGO       0.141081
     81 H61         17.1550    22.1180    30.6200 H          4 MGO       0.057384
     82 H62         17.9120    23.5770    29.9700 H          4 MGO       0.057384
     83 O6          15.9690    23.8010    30.6490 O.3        4 MGO      -0.593555
     84 HO6         15.3130    23.1640    30.9620 H          4 MGO       0.422027
     85 C1          24.1250    22.0250    33.2380 C.3        5 MGO       0.304529
     86 H1          25.2130    21.8740    33.0920 H          5 MGO       0.090782
     87 O1          23.4560    20.7730    33.6120 O.3        5 MGO      -0.453070
     88 C2          23.9230    23.0290    34.3680 C.3        5 MGO       0.092199
     89 H2          24.4350    23.9660    34.1320 H          5 MGO       0.102926
     90 O2          24.4450    22.4780    35.5880 O.3        5 MGO      -0.586639
     91 HO2         24.5170    21.5160    35.5040 H          5 MGO       0.425065
     92 C3          22.4450    23.2790    34.5920 C.3        5 MGO       0.093211
     93 H3          21.9740    22.3580    34.9480 H          5 MGO       0.064468
     94 O3          22.3420    24.3110    35.5860 O.3        5 MGO      -0.592567
     95 HO3         23.0510    24.1500    36.2230 H          5 MGO       0.421017
     96 C4          21.7640    23.7420    33.3110 C.3        5 MGO       0.127621
     97 H4          22.1060    24.7510    33.0690 H          5 MGO       0.080661
     98 C5          22.0500    22.7880    32.1370 C.3        5 MGO       0.104343
     99 H5          21.5950    21.8260    32.3780 H          5 MGO       0.068516
    100 O5          23.5170    22.5780    32.0140 O.3        5 MGO      -0.427383
    101 C6          21.4950    23.1840    30.7610 C.3        5 MGO       0.141081
    102 H61         20.5080    22.7380    30.6200 H          5 MGO       0.057384
    103 H62         22.1500    22.8120    29.9690 H          5 MGO       0.057384
    104 O6          21.3720    24.6080    30.6500 O.3        5 MGO      -0.593555
    105 HO6         20.4930    24.8560    30.9620 H          5 MGO       0.422027
    106 C1          23.9120    16.6540    33.2390 C.3        6 MGO       0.304529
    107 H1          24.3260    15.6370    33.0920 H          6 MGO       0.090782
    108 O1          22.4940    16.6070    33.6130 O.3        6 MGO      -0.453070
    109 C2          24.6800    17.3330    34.3670 C.3        6 MGO       0.092199
    110 H2          25.7480    17.3570    34.1320 H          6 MGO       0.102926
    111 O2          24.4650    16.6040    35.5880 O.3        6 MGO      -0.586639
    112 HO2         23.6670    16.0600    35.5040 H          6 MGO       0.425065
    113 C3          24.1580    18.7370    34.5920 C.3        6 MGO       0.093211
    114 H3          23.1250    18.6840    34.9480 H          6 MGO       0.064468
    115 O3          25.0010    19.3420    35.5860 O.3        6 MGO      -0.592567
    116 HO3         25.2160    18.6470    36.2230 H          6 MGO       0.421017
    117 C4          24.2180    19.5570    33.3110 C.3        6 MGO       0.127621
    118 H4          25.2640    19.7660    33.0680 H          6 MGO       0.080661
    119 C5          23.5350    18.8330    32.1370 C.3        6 MGO       0.104343
    120 H5          22.4740    18.7470    32.3790 H          6 MGO       0.068516
    121 O5          24.0870    17.4570    32.0140 O.3        6 MGO      -0.427383
    122 C6          23.6000    19.5120    30.7610 C.3        6 MGO       0.141081
    123 H61         22.7190    20.1430    30.6200 H          6 MGO       0.057384
    124 H62         23.6050    18.7580    29.9700 H          6 MGO       0.057384
    125 O6          24.7720    20.3300    30.6500 O.3        6 MGO      -0.593555
    126 HO6         24.5470    21.2160    30.9620 H          6 MGO       0.422027
@<TRIPOS>BOND
     1    17    20 1   
     2    14    16 1   
     3    14    17 1   
     4    12    14 1   
     5    12   108 1   
     6     8    10 1   
     7     8    12 1   
     8     4     6 1   
     9     4     8 1   
    10     3    33 1   
    11     1     3 1   
    12     1     4 1   
    13     1    16 1   
    14    38    41 1   
    15    35    37 1   
    16    35    38 1   
    17    33    35 1   
    18    29    31 1   
    19    29    33 1   
    20    25    27 1   
    21    25    29 1   
    22    24    54 1   
    23    22    24 1   
    24    22    25 1   
    25    22    37 1   
    26    59    62 1   
    27    56    58 1   
    28    56    59 1   
    29    54    56 1   
    30    50    52 1   
    31    50    54 1   
    32    46    48 1   
    33    46    50 1   
    34    45    75 1   
    35    43    45 1   
    36    43    46 1   
    37    43    58 1   
    38    80    83 1   
    39    77    79 1   
    40    77    80 1   
    41    75    77 1   
    42    71    73 1   
    43    71    75 1   
    44    67    69 1   
    45    67    71 1   
    46    66    96 1   
    47    64    66 1   
    48    64    67 1   
    49    64    79 1   
    50   101   104 1   
    51    98   100 1   
    52    98   101 1   
    53    96    98 1   
    54    92    94 1   
    55    92    96 1   
    56    88    90 1   
    57    88    92 1   
    58    87   117 1   
    59    85    87 1   
    60    85    88 1   
    61    85   100 1   
    62   122   125 1   
    63   119   121 1   
    64   119   122 1   
    65   117   119 1   
    66   113   115 1   
    67   113   117 1   
    68   109   111 1   
    69   109   113 1   
    70   106   108 1   
    71   106   109 1   
    72   106   121 1   
    73    20    21 1   
    74    17    18 1   
    75    17    19 1   
    76    14    15 1   
    77    12    13 1   
    78    10    11 1   
    79     8     9 1   
    80     6     7 1   
    81     4     5 1   
    82     1     2 1   
    83    41    42 1   
    84    38    39 1   
    85    38    40 1   
    86    35    36 1   
    87    33    34 1   
    88    31    32 1   
    89    29    30 1   
    90    27    28 1   
    91    25    26 1   
    92    22    23 1   
    93    62    63 1   
    94    59    60 1   
    95    59    61 1   
    96    56    57 1   
    97    54    55 1   
    98    52    53 1   
    99    50    51 1   
   100    48    49 1   
   101    46    47 1   
   102    43    44 1   
   103    83    84 1   
   104    80    81 1   
   105    80    82 1   
   106    77    78 1   
   107    75    76 1   
   108    73    74 1   
   109    71    72 1   
   110    69    70 1   
   111    67    68 1   
   112    64    65 1   
   113   104   105 1   
   114   101   102 1   
   115   101   103 1   
   116    98    99 1   
   117    96    97 1   
   118    94    95 1   
   119    92    93 1   
   120    90    91 1   
   121    88    89 1   
   122    85    86 1   
   123   125   126 1   
   124   122   123 1   
   125   122   124 1   
   126   119   120 1   
   127   117   118 1   
   128   115   116 1   
   129   113   114 1   
   130   111   112 1   
   131   109   110 1   
   132   106   107 1   
@<TRIPOS>SUBSTRUCTURE
     1 MGO         1 TEMP              0 ****  ****    0 ROOT
