@<TRIPOS>MOLECULE
Cpptraj
   22    22     1     0     0
SMALL
No Charge or Current Charge


@<TRIPOS>ATOM
      1 C1          19.6810    18.9970    33.6870 C.3        1 CHP      -0.075900
      2 H2          20.3820    18.7220    32.8950 H          1 CHP       0.037950
      3 H3          18.6800    18.7990    33.2960 H          1 CHP       0.037950
      4 C2          19.8240    20.5130    33.9470 C.3        1 CHP      -0.075900
      5 H4          20.8740    20.8050    33.8500 H          1 CHP       0.037950
      6 H5          19.2900    21.0400    33.1520 H          1 CHP       0.037950
      7 C3          19.2780    20.9890    35.3120 C.3        1 CHP      -0.072400
      8 H6          18.3780    20.4390    35.5890 H          1 CHP       0.038450
      9 H7          18.9820    22.0350    35.2040 H          1 CHP       0.038450
     10 C4          20.3480    20.9250    36.4280 C.3        1 CHP      -0.107400
     11 H8          21.2550    21.4250    36.0800 H          1 CHP       0.049700
     12 H9          19.9940    21.5130    37.2800 H          1 CHP       0.049700
     13 C5          20.7240    19.5110    36.9300 C.3        1 CHP       0.142100
     14 H10         21.6160    19.6290    37.5540 H          1 CHP       0.066700
     15 C6          21.0870    18.4880    35.8210 C.3        1 CHP      -0.107400
     16 H11         21.9150    18.8690    35.2180 H          1 CHP       0.049700
     17 H12         21.4610    17.5880    36.3150 H          1 CHP       0.049700
     18 C7          19.9100    18.0730    34.9040 C.3        1 CHP      -0.072400
     19 H13         20.1110    17.0690    34.5200 H          1 CHP       0.038450
     20 H14         18.9860    17.9910    35.4790 H          1 CHP       0.038450
     21 O1          19.6810    18.9970    37.7780 O.3        1 CHP      -0.598800
     22 H1          18.8380    18.9740    37.2480 H          1 CHP       0.397000
@<TRIPOS>BOND
     1    15    18 1   
     2    13    15 1   
     3    13    21 1   
     4    10    13 1   
     5     7    10 1   
     6     4     7 1   
     7     1     4 1   
     8     1    18 1   
     9    21    22 1   
    10    18    19 1   
    11    18    20 1   
    12    15    16 1   
    13    15    17 1   
    14    13    14 1   
    15    10    11 1   
    16    10    12 1   
    17     7     8 1   
    18     7     9 1   
    19     4     5 1   
    20     4     6 1   
    21     1     2 1   
    22     1     3 1   
@<TRIPOS>SUBSTRUCTURE
     1 CHP         1 TEMP              0 ****  ****    0 ROOT
