@<TRIPOS>MOLECULE
Cpptraj generated mol2 file.
  126   132     6     0     0
SMALL
USER_CHARGES


@<TRIPOS>ATOM
      1 C1         15.9270   15.3300   34.0260 c3         1 MGO      0.304529
      2 H1         14.8380   15.1950   33.8700 h2         1 MGO      0.090782
      3 O1         16.2480   16.7140   34.3980 os         1 MGO     -0.453070
      4 C2         16.3700   14.4160   35.1640 c3         1 MGO      0.092199
      5 H2         16.1180   13.3780   34.9290 h1         1 MGO      0.102926
      6 O2         15.7110   14.8180   36.3760 oh         1 MGO     -0.586639
      7 HO2        15.3930   15.7290   36.2850 ho         1 MGO      0.425065
      8 C3         17.8590   14.5560   35.4040 c3         1 MGO      0.093211
      9 H3         18.0740   15.5680   35.7580 h1         1 MGO      0.064468
     10 O3         18.2130   13.5880   36.4050 oh         1 MGO     -0.592567
     11 HO3        17.4790   13.5640   37.0350 ho         1 MGO      0.421017
     12 C4         18.6500   14.2790   34.1330 c3         1 MGO      0.127621
     13 H4         18.5820   13.2140   33.8930 h1         1 MGO      0.080661
     14 C5         18.1410   15.1230   32.9500 c3         1 MGO      0.104343
     15 H5         18.3320   16.1710   33.1900 h1         1 MGO      0.068516
     16 O5         16.6700   14.9480   32.8120 os         1 MGO     -0.427383
     17 C6         18.7950   14.8780   31.5820 c3         1 MGO      0.141081
     18 H61        19.6340   15.5630   31.4470 h1         1 MGO      0.057384
     19 H62        18.0740   15.0670   30.7820 h1         1 MGO      0.057384
     20 O6         19.2800   13.5330   31.4810 oh         1 MGO     -0.593555
     21 HO6        20.1910   13.5200   31.8030 ho         1 MGO      0.422027
     22 C1         14.7520   20.5750   33.9940 c3         2 MGO      0.304529
     23 H1         14.0930   21.4510   33.8380 h2         2 MGO      0.090782
     24 O1         16.1080   20.9870   34.3820 os         2 MGO     -0.453070
     25 C2         14.1720   19.7260   35.1210 c3         2 MGO      0.092199
     26 H2         13.1490   19.4280   34.8750 h1         2 MGO      0.102926
     27 O2         14.1810   20.4900   36.3370 oh         2 MGO     -0.586639
     28 HO2        14.8120   21.2210   36.2580 ho         2 MGO      0.425065
     29 C3         15.0360   18.5050   35.3580 c3         2 MGO      0.093211
     30 H3         16.0170   18.8220   35.7240 h1         2 MGO      0.064468
     31 O3         14.3670   17.7070   36.3480 oh         2 MGO     -0.592567
     32 HO3        13.9730   18.3250   36.9800 ho         2 MGO      0.421017
     33 C4         15.2020   17.6910   34.0830 c3         2 MGO      0.127621
     34 H4         14.2480   17.2190   33.8310 h1         2 MGO      0.080661
     35 C5         15.6890   18.5630   32.9090 c3         2 MGO      0.104343
     36 H5         16.6890   18.9200   33.1610 h1         2 MGO      0.068516
     37 O5         14.8030   19.7500   32.7740 os         2 MGO     -0.427383
     38 C6         15.8150   17.8840   31.5380 c3         2 MGO      0.141081
     39 H61        16.8290   17.5000   31.4090 h1         2 MGO      0.057384
     40 H62        15.6260   18.6080   30.7420 h1         2 MGO      0.057384
     41 O6         14.8950   16.7920   31.4210 oh         2 MGO     -0.593555
     42 HO6        15.3360   15.9930   31.7410 ho         2 MGO      0.422027
     43 C1         18.7070   24.2160   34.0230 c3         3 MGO      0.304529
     44 H1         19.1360   25.2260   33.8780 h2         3 MGO      0.090782
     45 O1         19.7370   23.2450   34.4130 os         3 MGO     -0.453070
     46 C2         17.6720   24.2840   35.1410 c3         3 MGO      0.092199
     47 H2         16.9030   25.0220   34.8940 h1         3 MGO      0.102926
     48 O2         18.3250   24.6510   36.3670 oh         3 MGO     -0.586639
     49 HO2        19.2760   24.4700   36.2940 ho         3 MGO      0.425065
     50 C3         17.0430   22.9240   35.3640 c3         3 MGO      0.093211
     51 H3         17.8050   22.2310   35.7300 h1         3 MGO      0.064468
     52 O3         16.0100   23.0970   36.3460 oh         3 MGO     -0.592567
     53 HO3        16.3430   23.7420   36.9840 ho         3 MGO      0.421017
     54 C4         16.4330   22.3830   34.0780 c3         3 MGO      0.127621
     55 H4         15.5510   22.9750   33.8230 h1         3 MGO      0.080661
     56 C5         17.4420   22.4070   32.9140 c3         3 MGO      0.104343
     57 H5         18.2490   21.7160   33.1680 h1         3 MGO      0.068516
     58 O5         18.0290   23.7670   32.7930 os         3 MGO     -0.427383
     59 C6         16.9310   21.9680   31.5350 c3         3 MGO      0.141081
     60 H61        17.1060   20.8980   31.4000 h1         3 MGO      0.057384
     61 H62        17.4700   22.5000   30.7480 h1         3 MGO      0.057384
     62 O6         15.5240   22.2200   31.4070 oh         3 MGO     -0.593555
     63 HO6        15.0530   21.4360   31.7180 ho         3 MGO      0.422027
     64 C1         23.8360   22.6110   34.0860 c3         4 MGO      0.304529
     65 H1         24.9280   22.7450   33.9520 h2         4 MGO      0.090782
     66 O1         23.5080   21.2300   34.4620 os         4 MGO     -0.453070
     67 C2         23.3690   23.5340   35.2070 c3         4 MGO      0.092199
     68 H2         23.6270   24.5700   34.9700 h1         4 MGO      0.102926
     69 O2         24.0020   23.1410   36.4360 oh         4 MGO     -0.586639
     70 HO2        24.3200   22.2280   36.3590 ho         4 MGO      0.425065
     71 C3         21.8750   23.3950   35.4160 c3         4 MGO      0.093211
     72 H3         21.6530   22.3860   35.7730 h1         4 MGO      0.064468
     73 O3         21.4990   24.3690   36.4020 oh         4 MGO     -0.592567
     74 HO3        22.2190   24.3990   37.0470 ho         4 MGO      0.421017
     75 C4         21.1130   23.6630   34.1250 c3         4 MGO      0.127621
     76 H4         21.1860   24.7250   33.8790 h1         4 MGO      0.080661
     77 C5         21.6470   22.8100   32.9610 c3         4 MGO      0.104343
     78 H5         21.4510   21.7650   33.2040 h1         4 MGO      0.068516
     79 O5         23.1200   22.9840   32.8530 os         4 MGO     -0.427383
     80 C6         21.0240   23.0450   31.5760 c3         4 MGO      0.141081
     81 H61        20.1870   22.3590   31.4280 h1         4 MGO      0.057384
     82 H62        21.7610   22.8510   30.7940 h1         4 MGO      0.057384
     83 O6         20.5410   24.3880   31.4540 oh         4 MGO     -0.593555
     84 HO6        19.6230   24.4040   31.7560 ho         4 MGO      0.422027
     85 C1         25.0120   17.3670   34.1180 c3         5 MGO      0.304529
     86 H1         25.6740   16.4890   33.9830 h2         5 MGO      0.090782
     87 O1         23.6480   16.9580   34.4790 os         5 MGO     -0.453070
     88 C2         25.5670   18.2230   35.2510 c3         5 MGO      0.092199
     89 H2         26.5950   18.5200   35.0240 h1         5 MGO      0.102926
     90 O2         25.5320   17.4680   36.4730 oh         5 MGO     -0.586639
     91 HO2        24.9030   16.7370   36.3850 ho         5 MGO      0.425065
     92 C3         24.6980   19.4460   35.4610 c3         5 MGO      0.093211
     93 H3         23.7090   19.1310   35.8070 h1         5 MGO      0.064468
     94 O3         25.3460   20.2510   36.4590 oh         5 MGO     -0.592567
     95 HO3        25.7250   19.6380   37.1030 ho         5 MGO      0.421017
     96 C4         24.5600   20.2510   34.1760 c3         5 MGO      0.127621
     97 H4         25.5190   20.7200   33.9420 h1         5 MGO      0.080661
     98 C5         24.0990   19.3700   32.9990 c3         5 MGO      0.104343
     99 H5         23.0930   19.0150   33.2310 h1         5 MGO      0.068516
    100 O5         24.9870   18.1820   32.8910 os         5 MGO     -0.427383
    101 C6         24.0040   20.0380   31.6200 c3         5 MGO      0.141081
    102 H61        22.9910   20.4220   31.4670 h1         5 MGO      0.057384
    103 H62        24.2100   19.3090   30.8330 h1         5 MGO      0.057384
    104 O6         24.9260   21.1300   31.5150 oh         5 MGO     -0.593555
    105 HO6        24.4780   21.9290   31.8200 ho         5 MGO      0.422027
    106 C1         21.0560   13.7250   34.0880 c3         6 MGO      0.304529
    107 H1         20.6300   12.7140   33.9410 h2         6 MGO      0.090782
    108 O1         20.0180   14.6990   34.4480 os         6 MGO     -0.453070
    109 C2         22.0670   13.6650   35.2280 c3         6 MGO      0.092199
    110 H2         22.8410   12.9250   35.0040 h1         6 MGO      0.102926
    111 O2         21.3850   13.3080   36.4420 oh         6 MGO     -0.586639
    112 HO2        20.4380   13.4890   36.3480 ho         6 MGO      0.425065
    113 C3         22.6900   15.0270   35.4550 c3         6 MGO      0.093211
    114 H3         21.9200   15.7230   35.8000 h1         6 MGO      0.064468
    115 O3         23.7030   14.8610   36.4600 oh         6 MGO     -0.592567
    116 HO3        23.3550   14.2210   37.0970 ho         6 MGO      0.421017
    117 C4         23.3280   15.5580   34.1790 c3         6 MGO      0.127621
    118 H4         24.2170   14.9650   33.9480 h1         6 MGO      0.080661
    119 C5         22.3460   15.5270   32.9940 c3         6 MGO      0.104343
    120 H5         21.5330   16.2190   33.2240 h1         6 MGO      0.068516
    121 O5         21.7620   14.1640   32.8700 os         6 MGO     -0.427383
    122 C6         22.8870   15.9560   31.6230 c3         6 MGO      0.141081
    123 H61        22.7150   17.0240   31.4760 h1         6 MGO      0.057384
    124 H62        22.3660   15.4170   30.8270 h1         6 MGO      0.057384
    125 O6         24.2950   15.7020   31.5270 oh         6 MGO     -0.593555
    126 HO6        24.7620   16.4880   31.8420 ho         6 MGO      0.422027
@<TRIPOS>BOND
    1    17    20 1
    2    14    16 1
    3    14    17 1
    4    12    14 1
    5    12   108 1
    6     8    10 1
    7     8    12 1
    8     4     6 1
    9     4     8 1
   10     3    33 1
   11     1     3 1
   12     1     4 1
   13     1    16 1
   14    38    41 1
   15    35    37 1
   16    35    38 1
   17    33    35 1
   18    29    31 1
   19    29    33 1
   20    25    27 1
   21    25    29 1
   22    24    54 1
   23    22    24 1
   24    22    25 1
   25    22    37 1
   26    59    62 1
   27    56    58 1
   28    56    59 1
   29    54    56 1
   30    50    52 1
   31    50    54 1
   32    46    48 1
   33    46    50 1
   34    45    75 1
   35    43    45 1
   36    43    46 1
   37    43    58 1
   38    80    83 1
   39    77    79 1
   40    77    80 1
   41    75    77 1
   42    71    73 1
   43    71    75 1
   44    67    69 1
   45    67    71 1
   46    66    96 1
   47    64    66 1
   48    64    67 1
   49    64    79 1
   50   101   104 1
   51    98   100 1
   52    98   101 1
   53    96    98 1
   54    92    94 1
   55    92    96 1
   56    88    90 1
   57    88    92 1
   58    87   117 1
   59    85    87 1
   60    85    88 1
   61    85   100 1
   62   122   125 1
   63   119   121 1
   64   119   122 1
   65   117   119 1
   66   113   115 1
   67   113   117 1
   68   109   111 1
   69   109   113 1
   70   106   108 1
   71   106   109 1
   72   106   121 1
   73    20    21 1
   74    17    18 1
   75    17    19 1
   76    14    15 1
   77    12    13 1
   78    10    11 1
   79     8     9 1
   80     6     7 1
   81     4     5 1
   82     1     2 1
   83    41    42 1
   84    38    39 1
   85    38    40 1
   86    35    36 1
   87    33    34 1
   88    31    32 1
   89    29    30 1
   90    27    28 1
   91    25    26 1
   92    22    23 1
   93    62    63 1
   94    59    60 1
   95    59    61 1
   96    56    57 1
   97    54    55 1
   98    52    53 1
   99    50    51 1
  100    48    49 1
  101    46    47 1
  102    43    44 1
  103    83    84 1
  104    80    81 1
  105    80    82 1
  106    77    78 1
  107    75    76 1
  108    73    74 1
  109    71    72 1
  110    69    70 1
  111    67    68 1
  112    64    65 1
  113   104   105 1
  114   101   102 1
  115   101   103 1
  116    98    99 1
  117    96    97 1
  118    94    95 1
  119    92    93 1
  120    90    91 1
  121    88    89 1
  122    85    86 1
  123   125   126 1
  124   122   123 1
  125   122   124 1
  126   119   120 1
  127   117   118 1
  128   115   116 1
  129   113   114 1
  130   111   112 1
  131   109   110 1
  132   106   107 1
@<TRIPOS>SUBSTRUCTURE
      1 MGO               1 ****               0 ****  **** 
      2 MGO              22 ****               0 ****  **** 
      3 MGO              43 ****               0 ****  **** 
      4 MGO              64 ****               0 ****  **** 
      5 MGO              85 ****               0 ****  **** 
      6 MGO             106 ****               0 ****  **** 
