@<TRIPOS>MOLECULE
Cpptraj
   25    25     1     0     0
SMALL
No Charge or Current Charge


@<TRIPOS>ATOM
      1 C1          19.6810    18.9970    33.3670 C.3        1 COC      -0.075433
      2 H2          18.8520    18.7300    34.0240 H          1 COC       0.040182
      3 H3          19.2920    18.8700    32.3540 H          1 COC       0.040182
      4 C2          20.8500    17.9980    33.5310 C.3        1 COC      -0.071931
      5 H4          20.4680    17.0060    33.2780 H          1 COC       0.036184
      6 H5          21.6260    18.2240    32.7940 H          1 COC       0.036184
      7 C3          21.5060    17.9050    34.9310 C.3        1 COC      -0.071431
      8 H6          22.2500    18.6920    35.0620 H          1 COC       0.038183
      9 H7          22.0730    16.9730    34.9550 H          1 COC       0.038183
     10 C4          20.5120    17.8890    36.1210 C.3        1 COC      -0.089939
     11 H8          19.5260    17.5380    35.8090 H          1 COC       0.049928
     12 H9          20.8800    17.1440    36.8310 H          1 COC       0.049928
     13 C5          20.4070    19.2370    36.8830 C.3        1 COC       0.145037
     14 H10         21.4180    19.5610    37.1530 H          1 COC       0.028688
     15 C6          19.7040    20.3910    36.1180 C.3        1 COC      -0.089939
     16 H11         18.7010    20.0980    35.8050 H          1 COC       0.049928
     17 H12         19.5670    21.2160    36.8230 H          1 COC       0.049928
     18 C7          20.5230    20.9540    34.9270 C.3        1 COC      -0.071431
     19 H13         21.5850    20.7500    35.0590 H          1 COC       0.038183
     20 H14         20.4410    22.0430    34.9460 H          1 COC       0.038183
     21 C8          20.0450    20.4920    33.5270 C.3        1 COC      -0.071931
     22 H15         20.8060    20.7590    32.7900 H          1 COC       0.036184
     23 H16         19.1550    21.0730    33.2730 H          1 COC       0.036184
     24 O1          19.6810    18.9970    38.0980 O.3        1 COC      -0.606064
     25 H1          19.7640    19.8140    38.6700 H          1 COC       0.396830
@<TRIPOS>BOND
     1    18    21 1   
     2    15    18 1   
     3    13    15 1   
     4    13    24 1   
     5    10    13 1   
     6     7    10 1   
     7     4     7 1   
     8     1     4 1   
     9     1    21 1   
    10    24    25 1   
    11    21    22 1   
    12    21    23 1   
    13    18    19 1   
    14    18    20 1   
    15    15    16 1   
    16    15    17 1   
    17    13    14 1   
    18    10    11 1   
    19    10    12 1   
    20     7     8 1   
    21     7     9 1   
    22     4     5 1   
    23     4     6 1   
    24     1     2 1   
    25     1     3 1   
@<TRIPOS>SUBSTRUCTURE
     1 COC         1 TEMP              0 ****  ****    0 ROOT
