@<TRIPOS>MOLECULE
Cpptraj
  147   154     1     0     0
SMALL
No Charge or Current Charge


@<TRIPOS>ATOM
      1 C1          26.1170    19.6100    33.7940 C.3        1 MGO       0.304529
      2 H1          27.0410    20.2070    33.9230 H          1 MGO       0.090782
      3 O1          24.9630    20.4670    33.4910 O.3        1 MGO      -0.453070
      4 C2          26.3320    18.6480    32.6300 C.3        1 MGO       0.092199
      5 H2          27.2230    18.0410    32.8140 H          1 MGO       0.102926
      6 O2          26.4990    19.3910    31.4100 O.3        1 MGO      -0.586639
      7 HO2         26.1710    20.2980    31.5260 H          1 MGO       0.425065
      8 C3          25.1240    17.7550    32.4400 C.3        1 MGO       0.093211
      9 H3          24.2630    18.3610    32.1460 H          1 MGO       0.064468
     10 O3          25.4640    16.8160    31.4070 O.3        1 MGO      -0.592567
     11 HO3         25.9860    17.3060    30.7570 H          1 MGO       0.421017
     12 C4          24.8210    17.0030    33.7270 C.3        1 MGO       0.127621
     13 H4          25.6420    16.3140    33.9390 H          1 MGO       0.080661
     14 C5          24.6420    17.9700    34.9080 C.3        1 MGO       0.104343
     15 H5          23.7900    18.6160    34.6860 H          1 MGO       0.068516
     16 O5          25.8520    18.8270    35.0170 O.3        1 MGO      -0.427383
     17 C6          24.3540    17.3390    36.2780 C.3        1 MGO       0.141081
     18 H61         23.2750    17.2240    36.4100 H          1 MGO       0.057384
     19 H62         24.7250    17.9870    37.0750 H          1 MGO       0.057384
     20 O6          24.9670    16.0480    36.3840 O.3        1 MGO      -0.593555
     21 HO6         24.3380    15.3880    36.0630 H          1 MGO       0.422027
     22 C1          23.9800    24.5320    33.7930 C.3        2 MGO       0.304529
     23 H1          24.0900    25.6270    33.9210 H          2 MGO       0.090782
     24 O1          22.5900    24.1640    33.4900 O.3        2 MGO      -0.453070
     25 C2          24.8670    24.1000    32.6280 C.3        2 MGO       0.092199
     26 H2          25.8970    24.4180    32.8130 H          2 MGO       0.102926
     27 O2          24.3900    24.6930    31.4100 O.3        2 MGO      -0.586639
     28 HO2         23.4760    25.0030    31.5250 H          2 MGO       0.425065
     29 C3          24.8110    22.5980    32.4410 C.3        2 MGO       0.093211
     30 H3          23.8010    22.3020    32.1450 H          2 MGO       0.064468
     31 O3          25.7570    22.2790    31.4080 O.3        2 MGO      -0.592567
     32 HO3         25.7000    22.9930    30.7560 H          2 MGO       0.421017
     33 C4          25.2100    21.8920    33.7260 C.3        2 MGO       0.127621
     34 H4          26.2610    22.1050    33.9390 H          2 MGO       0.080661
     35 C5          24.3440    22.3560    34.9080 C.3        2 MGO       0.104343
     36 H5          23.3080    22.0930    34.6850 H          2 MGO       0.068516
     37 O5          24.4270    23.8370    35.0160 O.3        2 MGO      -0.427383
     38 C6          24.6560    21.7380    36.2780 C.3        2 MGO       0.141081
     39 H61         24.0740    20.8240    36.4110 H          2 MGO       0.057384
     40 H62         24.3810    22.4330    37.0750 H          2 MGO       0.057384
     41 O6          26.0490    21.4130    36.3840 O.3        2 MGO      -0.593555
     42 HO6         26.1720    20.5100    36.0620 H          2 MGO       0.422027
     43 C1          18.7990    25.9300    33.7920 C.3        3 MGO       0.304529
     44 H1          18.0120    26.6980    33.9210 H          3 MGO       0.090782
     45 O1          18.2220    24.6130    33.4900 O.3        3 MGO      -0.453070
     46 C2          19.6890    26.3530    32.6280 C.3        3 MGO       0.092199
     47 H2          20.0830    27.3570    32.8120 H          3 MGO       0.102926
     48 O2          18.9280    26.3500    31.4090 O.3        3 MGO      -0.586639
     49 HO2         18.1170    25.8290    31.5250 H          3 MGO       0.425065
     50 C3          20.8300    25.3730    32.4400 C.3        3 MGO       0.093211
     51 H3          20.4310    24.3990    32.1450 H          3 MGO       0.064468
     52 O3          21.6690    25.9140    31.4070 O.3        3 MGO      -0.592567
     53 HO3         21.0750    26.3140    30.7550 H          3 MGO       0.421017
     54 C4          21.6300    25.2460    33.7260 C.3        3 MGO       0.127621
     55 H4          22.1190    26.2010    33.9380 H          3 MGO       0.080661
     56 C5          20.7280    24.8590    34.9070 C.3        3 MGO       0.104343
     57 H5          20.2870    23.8840    34.6850 H          3 MGO       0.068516
     58 O5          19.6210    25.8470    35.0150 O.3        3 MGO      -0.427383
     59 C6          21.4060    24.7170    36.2770 C.3        3 MGO       0.141081
     60 H61         21.7580    23.6930    36.4100 H          3 MGO       0.057384
     61 H62         20.6910    24.9370    37.0750 H          3 MGO       0.057384
     62 O6          22.5290    25.6040    36.3830 O.3        3 MGO      -0.593555
     63 HO6         23.3110    25.1370    36.0620 H          3 MGO       0.422027
     64 C1          14.4760    22.7510    33.7940 C.3        4 MGO       0.304529
     65 H1          13.3850    22.6150    33.9220 H          4 MGO       0.090782
     66 O1          15.1460    21.4790    33.4910 O.3        4 MGO      -0.453070
     67 C2          14.7010    23.7110    32.6290 C.3        4 MGO       0.092199
     68 H2          14.1610    24.6440    32.8140 H          4 MGO       0.102926
     69 O2          14.2280    23.1140    31.4100 O.3        4 MGO      -0.586639
     70 HO2         14.1290    22.1550    31.5260 H          4 MGO       0.425065
     71 C3          16.1760    23.9920    32.4410 C.3        4 MGO       0.093211
     72 H3          16.6900    23.0720    32.1450 H          4 MGO       0.064468
     73 O3          16.2780    24.9850    31.4080 O.3        4 MGO      -0.592567
     74 HO3         15.5950    24.7700    30.7570 H          4 MGO       0.421017
     75 C4          16.7770    24.5380    33.7260 C.3        4 MGO       0.127621
     76 H4          16.3350    25.5140    33.9390 H          4 MGO       0.080661
     77 C5          16.5180    23.5900    34.9070 C.3        4 MGO       0.104343
     78 H5          17.0050    22.6380    34.6850 H          4 MGO       0.068516
     79 O5          15.0550    23.3410    35.0160 O.3        4 MGO      -0.427383
     80 C6          17.0510    24.0330    36.2780 C.3        4 MGO       0.141081
     81 H61         18.0720    23.6690    36.4100 H          4 MGO       0.057384
     82 H62         16.4350    23.6100    37.0750 H          4 MGO       0.057384
     83 O6          17.0580    25.4620    36.3830 O.3        4 MGO      -0.593555
     84 HO6         17.9100    25.7850    36.0610 H          4 MGO       0.422027
     85 C1          14.2670    17.3890    33.7940 C.3        5 MGO       0.304529
     86 H1          13.6930    16.4510    33.9240 H          5 MGO       0.090782
     87 O1          15.6780    17.1190    33.4910 O.3        5 MGO      -0.453070
     88 C2          13.6550    18.1630    32.6300 C.3        5 MGO       0.092199
     89 H2          12.5890    18.3230    32.8150 H          5 MGO       0.102926
     90 O2          13.8270    17.4220    31.4110 O.3        5 MGO      -0.586639
     91 HO2         14.5160    16.7470    31.5260 H          5 MGO       0.425065
     92 C3          14.3560    19.4930    32.4420 C.3        5 MGO       0.093211
     93 H3          15.3950    19.3210    32.1460 H          5 MGO       0.064468
     94 O3          13.6430    20.1910    31.4080 O.3        5 MGO      -0.592567
     95 HO3         13.3850    19.5230    30.7570 H          5 MGO       0.421017
     96 C4          14.3030    20.3010    33.7270 C.3        5 MGO       0.127621
     97 H4          13.2650    20.5660    33.9400 H          5 MGO       0.080661
     98 C5          14.8840    19.5080    34.9080 C.3        5 MGO       0.104343
     99 H5          15.9310    19.2950    34.6850 H          5 MGO       0.068516
    100 O5          14.1660    18.2090    35.0170 O.3        5 MGO      -0.427383
    101 C6          14.8700    20.2010    36.2790 C.3        5 MGO       0.141081
    102 H61         15.7920    20.7730    36.4110 H          5 MGO       0.057384
    103 H62         14.8170    19.4560    37.0760 H          5 MGO       0.057384
    104 O6          13.7570    21.0980    36.3850 O.3        5 MGO      -0.593555
    105 HO6         14.0370    21.9650    36.0620 H          5 MGO       0.422027
    106 C1          18.3280    13.8830    33.7930 C.3        6 MGO       0.304529
    107 H1          18.7030    12.8480    33.9210 H          6 MGO       0.090782
    108 O1          19.4190    14.8170    33.4910 O.3        6 MGO      -0.453070
    109 C2          17.3410    13.8870    32.6290 C.3        6 MGO       0.092199
    110 H2          16.5510    13.1540    32.8130 H          6 MGO       0.102926
    111 O2          18.0290    13.5600    31.4100 O.3        6 MGO      -0.586639
    112 HO2         18.9860    13.6770    31.5250 H          6 MGO       0.425065
    113 C3          16.7400    15.2640    32.4400 C.3        6 MGO       0.093211
    114 H3          17.5220    15.9690    32.1450 H          6 MGO       0.064468
    115 O3          15.7490    15.1420    31.4070 O.3        6 MGO      -0.592567
    116 HO3         16.1100    14.5240    30.7560 H          6 MGO       0.421017
    117 C4          16.0740    15.7260    33.7270 C.3        6 MGO       0.127621
    118 H4          15.2200    15.0790    33.9390 H          6 MGO       0.080661
    119 C5          17.0560    15.6850    34.9070 C.3        6 MGO       0.104343
    120 H5          17.8750    16.3710    34.6860 H          6 MGO       0.068516
    121 O5          17.6240    14.3140    35.0160 O.3        6 MGO      -0.427383
    122 C6          16.5060    16.1050    36.2780 C.3        6 MGO       0.141081
    123 H61         16.6340    17.1820    36.4110 H          6 MGO       0.057384
    124 H62         17.0550    15.5980    37.0750 H          6 MGO       0.057384
    125 O6          15.1100    15.7950    36.3840 O.3        6 MGO      -0.593555
    126 HO6         14.6070    16.5550    36.0630 H          6 MGO       0.422027
    127 C1          23.6020    14.8710    33.7930 C.3        7 MGO       0.304529
    128 H1          24.6440    14.5210    33.9220 H          7 MGO       0.090782
    129 O1          23.5510    16.3070    33.4910 O.3        7 MGO      -0.453070
    130 C2          22.9840    14.1030    32.6280 C.3        7 MGO       0.092199
    131 H2          23.0640    13.0280    32.8130 H          7 MGO       0.102926
    132 O2          23.6670    14.4370    31.4100 O.3        7 MGO      -0.586639
    133 HO2         24.1730    15.2580    31.5250 H          7 MGO       0.425065
    134 C3          21.5310    14.4910    32.4400 C.3        7 MGO       0.093211
    135 H3          21.4680    15.5420    32.1450 H          7 MGO       0.064468
    136 O3          21.0090    13.6400    31.4060 O.3        7 MGO      -0.592567
    137 HO3         21.7180    13.5380    30.7560 H          7 MGO       0.421017
    138 C4          20.7540    14.2590    33.7260 C.3        7 MGO       0.127621
    139 H4          20.7280    13.1870    33.9380 H          7 MGO       0.080661
    140 C5          21.3990    15.0000    34.9080 C.3        7 MGO       0.104343
    141 H5          21.3730    16.0690    34.6850 H          7 MGO       0.068516
    142 O5          22.8240    14.5890    35.0150 O.3        7 MGO      -0.427383
    143 C6          20.7270    14.8320    36.2780 C.3        7 MGO       0.141081
    144 H61         19.9650    15.6030    36.4110 H          7 MGO       0.057384
    145 H62         21.4650    14.9460    37.0750 H          7 MGO       0.057384
    146 O6          20.1000    13.5470    36.3830 O.3        7 MGO      -0.593555
    147 HO6         19.1920    13.6270    36.0610 H          7 MGO       0.422027
@<TRIPOS>BOND
     1    17    20 1   
     2    14    16 1   
     3    14    17 1   
     4    12    14 1   
     5    12   129 1   
     6     8    10 1   
     7     8    12 1   
     8     4     6 1   
     9     4     8 1   
    10     3    33 1   
    11     1     3 1   
    12     1     4 1   
    13     1    16 1   
    14    38    41 1   
    15    35    37 1   
    16    35    38 1   
    17    33    35 1   
    18    29    31 1   
    19    29    33 1   
    20    25    27 1   
    21    25    29 1   
    22    24    54 1   
    23    22    24 1   
    24    22    25 1   
    25    22    37 1   
    26    59    62 1   
    27    56    58 1   
    28    56    59 1   
    29    54    56 1   
    30    50    52 1   
    31    50    54 1   
    32    46    48 1   
    33    46    50 1   
    34    45    75 1   
    35    43    45 1   
    36    43    46 1   
    37    43    58 1   
    38    80    83 1   
    39    77    79 1   
    40    77    80 1   
    41    75    77 1   
    42    71    73 1   
    43    71    75 1   
    44    67    69 1   
    45    67    71 1   
    46    66    96 1   
    47    64    66 1   
    48    64    67 1   
    49    64    79 1   
    50   101   104 1   
    51    98   100 1   
    52    98   101 1   
    53    96    98 1   
    54    92    94 1   
    55    92    96 1   
    56    88    90 1   
    57    88    92 1   
    58    87   117 1   
    59    85    87 1   
    60    85    88 1   
    61    85   100 1   
    62   122   125 1   
    63   119   121 1   
    64   119   122 1   
    65   117   119 1   
    66   113   115 1   
    67   113   117 1   
    68   109   111 1   
    69   109   113 1   
    70   108   138 1   
    71   106   108 1   
    72   106   109 1   
    73   106   121 1   
    74   143   146 1   
    75   140   142 1   
    76   140   143 1   
    77   138   140 1   
    78   134   136 1   
    79   134   138 1   
    80   130   132 1   
    81   130   134 1   
    82   127   129 1   
    83   127   130 1   
    84   127   142 1   
    85    20    21 1   
    86    17    18 1   
    87    17    19 1   
    88    14    15 1   
    89    12    13 1   
    90    10    11 1   
    91     8     9 1   
    92     6     7 1   
    93     4     5 1   
    94     1     2 1   
    95    41    42 1   
    96    38    39 1   
    97    38    40 1   
    98    35    36 1   
    99    33    34 1   
   100    31    32 1   
   101    29    30 1   
   102    27    28 1   
   103    25    26 1   
   104    22    23 1   
   105    62    63 1   
   106    59    60 1   
   107    59    61 1   
   108    56    57 1   
   109    54    55 1   
   110    52    53 1   
   111    50    51 1   
   112    48    49 1   
   113    46    47 1   
   114    43    44 1   
   115    83    84 1   
   116    80    81 1   
   117    80    82 1   
   118    77    78 1   
   119    75    76 1   
   120    73    74 1   
   121    71    72 1   
   122    69    70 1   
   123    67    68 1   
   124    64    65 1   
   125   104   105 1   
   126   101   102 1   
   127   101   103 1   
   128    98    99 1   
   129    96    97 1   
   130    94    95 1   
   131    92    93 1   
   132    90    91 1   
   133    88    89 1   
   134    85    86 1   
   135   125   126 1   
   136   122   123 1   
   137   122   124 1   
   138   119   120 1   
   139   117   118 1   
   140   115   116 1   
   141   113   114 1   
   142   111   112 1   
   143   109   110 1   
   144   106   107 1   
   145   146   147 1   
   146   143   144 1   
   147   143   145 1   
   148   140   141 1   
   149   138   139 1   
   150   136   137 1   
   151   134   135 1   
   152   132   133 1   
   153   130   131 1   
   154   127   128 1   
@<TRIPOS>SUBSTRUCTURE
     1 MGO         1 TEMP              0 ****  ****    0 ROOT
