@<TRIPOS>MOLECULE
Cpptraj generated mol2 file.
   20    20     1     0     0
SMALL
USER_CHARGES


@<TRIPOS>ATOM
      1 C1         19.2570   18.9080   37.4540 c          1 MP3      0.917600
      2 O1         18.0960   18.6500   37.7320 o          1 MP3     -0.842300
      3 O2         20.1410   18.0860   37.6300 o          1 MP3     -0.842300
      4 C2         19.6100   20.2830   36.8980 c3         1 MP3     -0.175100
      5 H1         20.5940   20.5930   37.2640 hc         1 MP3      0.037200
      6 H2         18.9010   21.0310   37.2650 hc         1 MP3      0.037200
      7 C3         19.6090   20.2800   35.3770 ca         1 MP3     -0.013300
      8 C4         18.4440   20.5960   34.6720 ca         1 MP3     -0.156000
      9 H3         17.5320   20.8410   35.2130 ha         1 MP3      0.118000
     10 C5         18.4440   20.5980   33.2780 ca         1 MP3     -0.145000
     11 H4         17.5330   20.8460   32.7340 ha         1 MP3      0.103000
     12 C6         19.6100   20.2830   32.5830 ca         1 MP3     -0.165000
     13 H5         19.6080   20.2870   31.4950 ha         1 MP3      0.104000
     14 C7         20.7780   19.9630   33.2770 ca         1 MP3     -0.096300
     15 C8         20.7720   19.9660   34.6720 ca         1 MP3     -0.119000
     16 H6         21.6830   19.7220   35.2140 ha         1 MP3      0.187000
     17 C9         22.0480   19.6250   32.5200 c3         1 MP3     -0.041800
     18 H7         22.6370   18.8820   33.0630 hc         1 MP3      0.030700
     19 H8         21.8180   19.2180   31.5330 hc         1 MP3      0.030700
     20 H9         22.6590   20.5200   32.3890 hc         1 MP3      0.030700
@<TRIPOS>BOND
    1    14    15 1
    2    14    17 1
    3    12    14 1
    4    10    12 1
    5     8    10 1
    6     7     8 1
    7     7    15 1
    8     4     7 1
    9     1     2 1
   10     1     3 1
   11     1     4 1
   12    17    18 1
   13    17    19 1
   14    17    20 1
   15    15    16 1
   16    12    13 1
   17    10    11 1
   18     8     9 1
   19     4     5 1
   20     4     6 1
@<TRIPOS>SUBSTRUCTURE
      1 MP3               1 ****               0 ****  **** 
