@<TRIPOS>MOLECULE
Cpptraj
   20    19     1     0     0
SMALL
No Charge or Current Charge


@<TRIPOS>ATOM
      1 N1          18.1270    20.1380    37.8290 N.4        1 MBA      -0.845836
      2 H1          17.3250    19.4960    37.7350 H          1 MBA       0.459005
      3 H2          18.0000    20.8950    37.1400 H          1 MBA       0.459005
      4 HN11        18.0640    20.5660    38.7670 H          1 MBA       0.459005
      5 C1          19.4330    19.4240    37.6360 C.3        1 MBA       0.130464
      6 H3          19.4720    18.6710    38.4300 H          1 MBA       0.108670
      7 C2          20.6360    20.3670    37.8170 C.3        1 MBA      -0.138138
      8 H4          20.6010    21.2090    37.1230 H          1 MBA       0.082677
      9 H5          21.5740    19.8290    37.6590 H          1 MBA       0.082677
     10 H6          20.6550    20.7710    38.8320 H          1 MBA       0.082677
     11 C3          19.5120    18.6840    36.2800 C.3        1 MBA      -0.118433
     12 H7          20.4420    18.1090    36.2480 H          1 MBA       0.089675
     13 H8          18.7010    17.9510    36.2320 H          1 MBA       0.089675
     14 C4          19.4430    19.6000    35.0330 C.3        1 MBA      -0.090425
     15 H9          20.2840    20.2960    35.0220 H          1 MBA       0.039189
     16 H10         18.5230    20.1910    35.0460 H          1 MBA       0.039189
     17 C5          19.4790    18.7680    33.7390 C.3        1 MBA      -0.099128
     18 H11         20.4010    18.1860    33.6810 H          1 MBA       0.056684
     19 H12         19.4330    19.4240    32.8670 H          1 MBA       0.056684
     20 H13         18.6300    18.0820    33.6960 H          1 MBA       0.056684
@<TRIPOS>BOND
     1    14    17 1   
     2    11    14 1   
     3     5     7 1   
     4     5    11 1   
     5     1     5 1   
     6    17    18 1   
     7    17    19 1   
     8    17    20 1   
     9    14    15 1   
    10    14    16 1   
    11    11    12 1   
    12    11    13 1   
    13     7     8 1   
    14     7     9 1   
    15     7    10 1   
    16     5     6 1   
    17     1     2 1   
    18     1     3 1   
    19     1     4 1   
@<TRIPOS>SUBSTRUCTURE
     1 MBA         1 TEMP              0 ****  ****    0 ROOT
