@<TRIPOS>MOLECULE
Cpptraj generated mol2 file.
  126   132     6     0     0
SMALL
USER_CHARGES


@<TRIPOS>ATOM
      1 C1         16.6900   14.8660   34.4500 c3         1 MGO      0.304529
      2 H1         16.7990   13.7740   34.5990 h2         1 MGO      0.090782
      3 O1         17.9660   15.4870   34.0750 os         1 MGO     -0.453070
      4 C2         15.6950   15.1040   33.3190 c3         1 MGO      0.092199
      5 H2         14.7400   14.6270   33.5550 h1         1 MGO      0.102926
      6 O2         16.2270   14.5570   32.1000 oh         1 MGO     -0.586639
      7 HO2        17.1860   14.4490   32.1860 ho         1 MGO      0.425065
      8 C3         15.5010   16.5890   33.0890 c3         1 MGO      0.093211
      9 H3         16.4390   17.0240   32.7330 h1         1 MGO      0.064468
     10 O3         14.4750   16.7270   32.0940 oh         1 MGO     -0.592567
     11 HO3        14.6090   16.0100   31.4590 ho         1 MGO      0.421017
     12 C4         15.0630   17.2900   34.3670 c3         1 MGO      0.127621
     13 H4         14.0410   16.9870   34.6100 h1         1 MGO      0.080661
     14 C5         16.0040   16.9730   35.5440 c3         1 MGO      0.104343
     15 H5         16.9830   17.3910   35.3020 h1         1 MGO      0.068516
     16 O5         16.1590   15.4980   35.6720 os         1 MGO     -0.427383
     17 C6         15.6280   17.5460   36.9180 c3         1 MGO      0.141081
     18 H61        16.1110   18.5160   37.0560 h1         1 MGO      0.057384
     19 H62        15.9750   16.8800   37.7120 h1         1 MGO      0.057384
     20 O6         14.2100   17.7230   37.0270 oh         1 MGO     -0.593555
     21 HO6        13.9940   18.6100   36.7120 ho         1 MGO      0.422027
     22 C1         22.0650   14.8790   34.4550 c3         2 MGO      0.304529
     23 H1         23.0660   14.4280   34.6030 h2         2 MGO      0.090782
     24 O1         22.1650   16.2940   34.0770 os         2 MGO     -0.453070
     25 C2         21.3600   14.1330   33.3270 c3         2 MGO      0.092199
     26 H2         21.2960   13.0680   33.5670 h1         2 MGO      0.102926
     27 O2         22.0970   14.3180   32.1080 oh         2 MGO     -0.586639
     28 HO2        22.6700   15.0950   32.1890 ho         2 MGO      0.425065
     29 C3         19.9760   14.7080   33.1000 c3         2 MGO      0.093211
     30 H3         20.0670   15.7370   32.7410 h1         2 MGO      0.064468
     31 O3         19.3410   13.8850   32.1080 oh         2 MGO     -0.592567
     32 HO3        20.0280   13.6420   31.4710 ho         2 MGO      0.421017
     33 C4         19.1520   14.6810   34.3800 c3         2 MGO      0.127621
     34 H4         18.9040   13.6460   34.6250 h1         2 MGO      0.080661
     35 C5         19.9010   15.3410   35.5530 c3         2 MGO      0.104343
     36 H5         20.0270   16.3970   35.3080 h1         2 MGO      0.068516
     37 O5         21.2550   14.7380   35.6790 os         2 MGO     -0.427383
     38 C6         19.2180   15.3050   36.9280 c3         2 MGO      0.141081
     39 H61        18.6200   16.2080   37.0660 h1         2 MGO      0.057384
     40 H62        19.9700   15.2740   37.7200 h1         2 MGO      0.057384
     41 O6         18.3570   14.1650   37.0420 oh         2 MGO     -0.593555
     42 HO6        17.4790   14.4210   36.7280 ho         2 MGO      0.422027
     43 C1         24.7420   19.5410   34.4430 c3         3 MGO      0.304529
     44 H1         25.6330   20.1810   34.5880 h2         3 MGO      0.090782
     45 O1         23.5650   20.3340   34.0650 os         3 MGO     -0.453070
     46 C2         25.0320   18.5540   33.3170 c3         3 MGO      0.092199
     47 H2         25.9230   17.9660   33.5560 h1         3 MGO      0.102926
     48 O2         25.2390   19.2800   32.0950 oh         3 MGO     -0.586639
     49 HO2        24.8530   20.1660   32.1760 ho         3 MGO      0.425065
     50 C3         23.8430   17.6420   33.0950 c3         3 MGO      0.093211
     51 H3         22.9960   18.2340   32.7360 h1         3 MGO      0.064468
     52 O3         24.2350   16.6780   32.1040 oh         3 MGO     -0.592567
     53 HO3        24.7880   17.1500   31.4660 ho         3 MGO      0.421017
     54 C4         23.4560   16.9190   34.3770 c3         3 MGO      0.127621
     55 H4         24.2300   16.1870   34.6240 h1         3 MGO      0.080661
     56 C5         23.2620   17.9000   35.5490 c3         3 MGO      0.104343
     57 H5         22.4100   18.5360   35.3040 h1         3 MGO      0.068516
     58 O5         24.4610   18.7720   35.6700 os         3 MGO     -0.427383
     59 C6         22.9540   17.2950   36.9260 c3         3 MGO      0.141081
     60 H61        21.8730   17.2290   37.0660 h1         3 MGO      0.057384
     61 H62        23.3590   17.9330   37.7150 h1         3 MGO      0.057384
     62 O6         23.5110   15.9790   37.0420 oh         3 MGO     -0.593555
     63 HO6        22.8500   15.3470   36.7310 ho         3 MGO      0.422027
     64 C1         22.0440   24.1890   34.4250 c3         4 MGO      0.304529
     65 H1         21.9340   25.2820   34.5670 h2         4 MGO      0.090782
     66 O1         20.7670   23.5660   34.0520 os         4 MGO     -0.453070
     67 C2         23.0410   23.9450   33.2970 c3         4 MGO      0.092199
     68 H2         23.9960   24.4230   33.5330 h1         4 MGO      0.102926
     69 O2         22.5120   24.4830   32.0750 oh         4 MGO     -0.586639
     70 HO2        21.5520   24.5920   32.1570 ho         4 MGO      0.425065
     71 C3         23.2350   22.4580   33.0780 c3         4 MGO      0.093211
     72 H3         22.2980   22.0210   32.7230 h1         4 MGO      0.064468
     73 O3         24.2630   22.3130   32.0860 oh         4 MGO     -0.592567
     74 HO3        24.1300   23.0260   31.4460 ho         4 MGO      0.421017
     75 C4         23.6710   21.7660   34.3620 c3         4 MGO      0.127621
     76 H4         24.6920   22.0700   34.6050 h1         4 MGO      0.080661
     77 C5         22.7270   22.0900   35.5340 c3         4 MGO      0.104343
     78 H5         21.7490   21.6700   35.2920 h1         4 MGO      0.068516
     79 O5         22.5720   23.5650   35.6520 os         4 MGO     -0.427383
     80 C6         23.1000   21.5260   36.9120 c3         4 MGO      0.141081
     81 H61        22.6180   20.5560   37.0560 h1         4 MGO      0.057384
     82 H62        22.7520   22.1960   37.7010 h1         4 MGO      0.057384
     83 O6         24.5180   21.3500   37.0260 oh         4 MGO     -0.593555
     84 HO6        24.7340   20.4600   36.7160 ho         4 MGO      0.422027
     85 C1         16.6690   24.1770   34.4200 c3         5 MGO      0.304529
     86 H1         15.6670   24.6280   34.5640 h2         5 MGO      0.090782
     87 O1         16.5700   22.7590   34.0510 os         5 MGO     -0.453070
     88 C2         17.3750   24.9150   33.2890 c3         5 MGO      0.092199
     89 H2         17.4400   25.9820   33.5210 h1         5 MGO      0.102926
     90 O2         16.6410   24.7220   32.0690 oh         5 MGO     -0.586639
     91 HO2        16.0680   23.9460   32.1550 ho         5 MGO      0.425065
     92 C3         18.7600   24.3400   33.0680 c3         5 MGO      0.093211
     93 H3         18.6690   23.3080   32.7150 h1         5 MGO      0.064468
     94 O3         19.3970   25.1560   32.0710 oh         5 MGO     -0.592567
     95 HO3        18.7120   25.3940   31.4330 ho         5 MGO      0.421017
     96 C4         19.5810   24.3740   34.3490 c3         5 MGO      0.127621
     97 H4         19.8280   25.4110   34.5880 h1         5 MGO      0.080661
     98 C5         18.8310   23.7220   35.5250 c3         5 MGO      0.104343
     99 H5         18.7050   22.6640   35.2870 h1         5 MGO      0.068516
    100 O5         17.4760   24.3250   35.6440 os         5 MGO     -0.427383
    101 C6         19.5100   23.7670   36.9010 c3         5 MGO      0.141081
    102 H61        20.1080   22.8640   37.0460 h1         5 MGO      0.057384
    103 H62        18.7570   23.8020   37.6920 h1         5 MGO      0.057384
    104 O6         20.3720   24.9070   37.0100 oh         5 MGO     -0.593555
    105 HO6        21.2490   24.6490   36.6990 ho         5 MGO      0.422027
    106 C1         13.9920   19.5150   34.4320 c3         6 MGO      0.304529
    107 H1         13.1000   18.8740   34.5800 h2         6 MGO      0.090782
    108 O1         15.1690   18.7190   34.0620 os         6 MGO     -0.453070
    109 C2         13.7040   20.4950   33.3000 c3         6 MGO      0.092199
    110 H2         12.8120   21.0840   33.5330 h1         6 MGO      0.102926
    111 O2         13.5000   19.7600   32.0820 oh         6 MGO     -0.586639
    112 HO2        13.8860   18.8750   32.1690 ho         6 MGO      0.425065
    113 C3         14.8930   21.4050   33.0740 c3         6 MGO      0.093211
    114 H3         15.7400   20.8100   32.7210 h1         6 MGO      0.064468
    115 O3         14.5020   22.3630   32.0770 oh         6 MGO     -0.592567
    116 HO3        13.9520   21.8860   31.4400 ho         6 MGO      0.421017
    117 C4         15.2770   22.1360   34.3530 c3         6 MGO      0.127621
    118 H4         14.5030   22.8690   34.5930 h1         6 MGO      0.080661
    119 C5         15.4690   21.1630   35.5300 c3         6 MGO      0.104343
    120 H5         16.3220   20.5250   35.2910 h1         6 MGO      0.068516
    121 O5         14.2700   20.2910   35.6540 os         6 MGO     -0.427383
    122 C6         15.7750   21.7760   36.9040 c3         6 MGO      0.141081
    123 H61        16.8560   21.8430   37.0460 h1         6 MGO      0.057384
    124 H62        15.3690   21.1440   37.6970 h1         6 MGO      0.057384
    125 O6         15.2170   23.0930   37.0110 oh         6 MGO     -0.593555
    126 HO6        15.8790   23.7230   36.6970 ho         6 MGO      0.422027
@<TRIPOS>BOND
    1    17    20 1
    2    14    16 1
    3    14    17 1
    4    12    14 1
    5    12   108 1
    6     8    10 1
    7     8    12 1
    8     4     6 1
    9     4     8 1
   10     3    33 1
   11     1     3 1
   12     1     4 1
   13     1    16 1
   14    38    41 1
   15    35    37 1
   16    35    38 1
   17    33    35 1
   18    29    31 1
   19    29    33 1
   20    25    27 1
   21    25    29 1
   22    24    54 1
   23    22    24 1
   24    22    25 1
   25    22    37 1
   26    59    62 1
   27    56    58 1
   28    56    59 1
   29    54    56 1
   30    50    52 1
   31    50    54 1
   32    46    48 1
   33    46    50 1
   34    45    75 1
   35    43    45 1
   36    43    46 1
   37    43    58 1
   38    80    83 1
   39    77    79 1
   40    77    80 1
   41    75    77 1
   42    71    73 1
   43    71    75 1
   44    67    69 1
   45    67    71 1
   46    66    96 1
   47    64    66 1
   48    64    67 1
   49    64    79 1
   50   101   104 1
   51    98   100 1
   52    98   101 1
   53    96    98 1
   54    92    94 1
   55    92    96 1
   56    88    90 1
   57    88    92 1
   58    87   117 1
   59    85    87 1
   60    85    88 1
   61    85   100 1
   62   122   125 1
   63   119   121 1
   64   119   122 1
   65   117   119 1
   66   113   115 1
   67   113   117 1
   68   109   111 1
   69   109   113 1
   70   106   108 1
   71   106   109 1
   72   106   121 1
   73    20    21 1
   74    17    18 1
   75    17    19 1
   76    14    15 1
   77    12    13 1
   78    10    11 1
   79     8     9 1
   80     6     7 1
   81     4     5 1
   82     1     2 1
   83    41    42 1
   84    38    39 1
   85    38    40 1
   86    35    36 1
   87    33    34 1
   88    31    32 1
   89    29    30 1
   90    27    28 1
   91    25    26 1
   92    22    23 1
   93    62    63 1
   94    59    60 1
   95    59    61 1
   96    56    57 1
   97    54    55 1
   98    52    53 1
   99    50    51 1
  100    48    49 1
  101    46    47 1
  102    43    44 1
  103    83    84 1
  104    80    81 1
  105    80    82 1
  106    77    78 1
  107    75    76 1
  108    73    74 1
  109    71    72 1
  110    69    70 1
  111    67    68 1
  112    64    65 1
  113   104   105 1
  114   101   102 1
  115   101   103 1
  116    98    99 1
  117    96    97 1
  118    94    95 1
  119    92    93 1
  120    90    91 1
  121    88    89 1
  122    85    86 1
  123   125   126 1
  124   122   123 1
  125   122   124 1
  126   119   120 1
  127   117   118 1
  128   115   116 1
  129   113   114 1
  130   111   112 1
  131   109   110 1
  132   106   107 1
@<TRIPOS>SUBSTRUCTURE
      1 MGO               1 ****               0 ****  **** 
      2 MGO              22 ****               0 ****  **** 
      3 MGO              43 ****               0 ****  **** 
      4 MGO              64 ****               0 ****  **** 
      5 MGO              85 ****               0 ****  **** 
      6 MGO             106 ****               0 ****  **** 
