@<TRIPOS>MOLECULE
HX3
   17    16     1     0     0
SMALL
bcc


@<TRIPOS>ATOM
      1 C1          0.0000    0.0000    6.3050  c        1 HX3      0.913353
      2 O1          0.9230    0.6930    6.7030  o        1 HX3     -0.847529
      3 O2         -1.0230   -0.1120    6.9640  o        1 HX3     -0.847529
      4 C2          0.1280   -0.7300    4.9660 c3        1 HX3     -0.187251
      5 H1         -0.6040   -1.5410    4.9100 hc        1 HX3      0.035690
      6 H2          1.1150   -1.2030    4.9090 hc        1 HX3      0.035690
      7 C3         -0.0360    0.2080    3.7840 c2        1 HX3     -0.081222
      8 H3         -0.2220    1.2520    4.0360 ha        1 HX3      0.140962
      9 C4          0.0330   -0.1820    2.5150 c2        1 HX3     -0.271273
     10 H4          0.2190   -1.2260    2.2670 ha        1 HX3      0.101972
     11 C5         -0.1330    0.7530    1.3360 c3        1 HX3     -0.029208
     12 H5         -1.1080    1.2440    1.3740 hc        1 HX3      0.029692
     13 H6          0.6280    1.5360    1.3840 hc        1 HX3      0.029692
     14 C6         -0.0000    0.0000   -0.0000 c3        1 HX3     -0.084123
     15 H7         -0.7670   -0.7730   -0.0840 hc        1 HX3      0.020361
     16 H8         -0.1160    0.6920   -0.8370 hc        1 HX3      0.020361
     17 H9          0.9810   -0.4730   -0.0800 hc        1 HX3      0.020362
@<TRIPOS>BOND
     1    1    2 1   
     2    1    3 1   
     3    1    4 1   
     4    4    5 1   
     5    4    6 1   
     6    4    7 1   
     7    7    8 1   
     8    7    9 2   
     9    9   10 1   
    10    9   11 1   
    11   11   12 1   
    12   11   13 1   
    13   11   14 1   
    14   14   15 1   
    15   14   16 1   
    16   14   17 1   
@<TRIPOS>SUBSTRUCTURE
     1 HX3         1 TEMP              0 ****  ****    0 ROOT
