@<TRIPOS>MOLECULE
MP4
   20    20     1     0     0
SMALL
bcc


@<TRIPOS>ATOM
      1 C1         -1.4230    0.0520    6.3930  c        1 MP4      0.923048
      2 O1         -1.9430    1.1330    6.6170  o        1 MP4     -0.835894
      3 O2         -2.0190   -0.9890    6.6170  o        1 MP4     -0.835894
      4 C2         -0.0000    0.0000    5.8420 c3        1 MP4     -0.182012
      5 H1          0.5160   -0.8930    6.2100 hc        1 MP4      0.034717
      6 H2          0.5780    0.8550    6.2100 hc        1 MP4      0.034717
      7 C3         -0.0040    0.0000    4.3220 ca        1 MP4     -0.001299
      8 C4         -0.0450   -1.2040    3.6160 ca        1 MP4     -0.136434
      9 H3         -0.0810   -2.1490    4.1560 ha        1 MP4      0.137567
     10 C5         -0.0430   -1.2030    2.2200 ca        1 MP4     -0.133935
     11 H4         -0.0800   -2.1470    1.6790 ha        1 MP4      0.107052
     12 C6          0.0030   -0.0000    1.5160 ca        1 MP4     -0.128238
     13 C7          0.0440    1.2030    2.2200 ca        1 MP4     -0.133935
     14 H5          0.0760    2.1470    1.6780 ha        1 MP4      0.107052
     15 C8          0.0420    1.2050    3.6150 ca        1 MP4     -0.136434
     16 H6          0.0740    2.1500    4.1560 ha        1 MP4      0.137567
     17 C9          0.0000   -0.0000    0.0000 c3        1 MP4     -0.033784
     18 H7          0.5410    0.8640   -0.3900 hc        1 MP4      0.025379
     19 H8          0.4780   -0.9020   -0.3890 hc        1 MP4      0.025379
     20 H9         -1.0250    0.0370   -0.3750 hc        1 MP4      0.025381
@<TRIPOS>BOND
     1    1    2 1   
     2    1    3 1   
     3    1    4 1   
     4    4    5 1   
     5    4    6 1   
     6    4    7 1   
     7    7    8 ar  
     8    7   15 ar  
     9    8    9 1   
    10    8   10 ar  
    11   10   11 1   
    12   10   12 ar  
    13   12   13 ar  
    14   12   17 1   
    15   13   14 1   
    16   13   15 ar  
    17   15   16 1   
    18   17   18 1   
    19   17   19 1   
    20   17   20 1   
@<TRIPOS>SUBSTRUCTURE
     1 MP4         1 TEMP              0 ****  ****    0 ROOT
