@<TRIPOS>MOLECULE
CBU
   13    13     1     0     0
SMALL
bcc


@<TRIPOS>ATOM
      1 C1         -0.0000   -0.0000    0.0000 cy        1 CBU     -0.089350
      2 H2         -0.7770    0.6260   -0.4540 hc        1 CBU      0.050728
      3 H3          0.5810   -0.4690   -0.8010 hc        1 CBU      0.050728
      4 C2         -0.4990   -0.9490    1.1330 cy        1 CBU     -0.108839
      5 H4         -1.5090   -1.3490    1.0150 hc        1 CBU      0.057982
      6 H5          0.1780   -1.7790    1.3700 hc        1 CBU      0.057982
      7 C3         -0.3640    0.2960    2.0580 cy        1 CBU      0.118166
      8 H6         -1.2220    0.9830    2.0150 h1        1 CBU      0.042724
      9 C4          0.8230    0.6910    1.1310 cy        1 CBU     -0.108839
     10 H7          1.7770    0.2070    1.3660 hc        1 CBU      0.057982
     11 H8          0.9980    1.7650    1.0100 hc        1 CBU      0.057982
     12 O1         -0.0000   -0.0000    3.3970 oh        1 CBU     -0.587471
     13 H1          0.1490    0.8800    3.8490 ho        1 CBU      0.400225
@<TRIPOS>BOND
     1    1    2 1   
     2    1    3 1   
     3    1    4 1   
     4    1    9 1   
     5    4    5 1   
     6    4    6 1   
     7    4    7 1   
     8    7    8 1   
     9    7    9 1   
    10    7   12 1   
    11    9   10 1   
    12    9   11 1   
    13   12   13 1   
@<TRIPOS>SUBSTRUCTURE
     1 CBU         1 TEMP              0 ****  ****    0 ROOT
