@<TRIPOS>MOLECULE
Cpptraj
   22    21     1     0     0
SMALL
No Charge or Current Charge


@<TRIPOS>ATOM
      1 C1          18.8060    19.9150    39.0660 C.2        1 HEP       0.907600
      2 O1          18.9810    21.1230    39.0500 O.co2      1 HEP      -0.853800
      3 O2          18.7210    19.3280    40.1320 O.co2      1 HEP      -0.853800
      4 C2          18.6890    19.1070    37.7700 C.3        1 HEP      -0.193400
      5 H1          17.7260    18.5860    37.7540 H          1 HEP       0.018700
      6 H2          19.4660    18.3340    37.7540 H          1 HEP       0.018700
      7 C3          18.8130    19.9620    36.4870 C.3        1 HEP      -0.065400
      8 H3          18.0300    20.7250    36.4770 H          1 HEP       0.043700
      9 H4          19.7800    20.4720    36.4770 H          1 HEP       0.043700
     10 C4          18.6860    19.0880    35.2210 C.3        1 HEP      -0.078400
     11 H5          17.7210    18.5760    35.2260 H          1 HEP       0.025700
     12 H6          19.4670    18.3230    35.2260 H          1 HEP       0.025700
     13 C5          18.8100    19.9400    33.9400 C.3        1 HEP      -0.078400
     14 H7          18.0290    20.7050    33.9340 H          1 HEP       0.035700
     15 H8          19.7750    20.4530    33.9340 H          1 HEP       0.035700
     16 C6          18.6830    19.0680    32.6740 C.3        1 HEP      -0.081400
     17 H9          17.7180    18.5540    32.6740 H          1 HEP       0.032700
     18 H10         19.4640    18.3020    32.6740 H          1 HEP       0.032700
     19 C7          18.8060    19.9150    31.3940 C.3        1 HEP      -0.089100
     20 H11         18.0190    20.6710    31.3550 H          1 HEP       0.024367
     21 H12         18.7140    19.2790    30.5100 H          1 HEP       0.024367
     22 H13         19.7750    20.4170    31.3550 H          1 HEP       0.024366
@<TRIPOS>BOND
     1    16    19 1   
     2    13    16 1   
     3    10    13 1   
     4     7    10 1   
     5     4     7 1   
     6     1     2 1   
     7     1     3 1   
     8     1     4 1   
     9    19    20 1   
    10    19    21 1   
    11    19    22 1   
    12    16    17 1   
    13    16    18 1   
    14    13    14 1   
    15    13    15 1   
    16    10    11 1   
    17    10    12 1   
    18     7     8 1   
    19     7     9 1   
    20     4     5 1   
    21     4     6 1   
@<TRIPOS>SUBSTRUCTURE
     1 HEP         1 TEMP              0 ****  ****    0 ROOT
