@<TRIPOS>MOLECULE
Cpptraj generated mol2 file.
  126   132     6     0     0
SMALL
USER_CHARGES


@<TRIPOS>ATOM
      1 C1         19.2810   14.2290   33.4700 c3         1 MGO      0.304529
      2 H1         20.0190   13.4200   33.6400 h2         1 MGO      0.090782
      3 O1         19.9350   15.4660   33.0270 os         1 MGO     -0.453070
      4 C2         18.3150   13.7830   32.3770 c3         1 MGO      0.092199
      5 H2         17.8330   12.8450   32.6650 h1         1 MGO      0.102926
      6 O2         19.0430   13.6030   31.1510 oh         1 MGO     -0.586639
      7 HO2        19.8810   14.0860   31.1970 ho         1 MGO      0.425065
      8 C3         17.2760   14.8550   32.1220 c3         1 MGO      0.093211
      9 H3         17.7670   15.7440   31.7160 h1         1 MGO      0.064468
     10 O3         16.3470   14.3160   31.1690 oh         1 MGO     -0.592567
     11 HO3        16.8660   13.7900   30.5450 ho         1 MGO      0.421017
     12 C4         16.5340   15.2170   33.4010 c3         1 MGO      0.127621
     13 H4         15.8950   14.3800   33.6940 h1         1 MGO      0.080661
     14 C5         17.5040   15.5690   34.5430 c3         1 MGO      0.104343
     15 H5         18.0410   16.4740   34.2500 h1         1 MGO      0.068516
     16 O5         18.5050   14.4780   34.6990 os         1 MGO     -0.427383
     17 C6         16.8910   15.8700   35.9180 c3         1 MGO      0.141081
     18 H61        16.7090   16.9430   36.0130 h1         1 MGO      0.057384
     19 H62        17.5810   15.5730   36.7120 h1         1 MGO      0.057384
     20 O6         15.6450   15.1800   36.0830 oh         1 MGO     -0.593555
     21 HO6        14.9400   15.7530   35.7570 ho         1 MGO      0.422027
     22 C1         23.6050   17.4140   33.2460 c3         2 MGO      0.304529
     23 H1         24.6820   17.6480   33.3620 h2         2 MGO      0.090782
     24 O1         22.8410   18.5970   32.8310 os         2 MGO     -0.453070
     25 C2         23.4550   16.3470   32.1670 c3         2 MGO      0.092199
     26 H2         24.0390   15.4610   32.4340 h1         2 MGO      0.102926
     27 O2         23.9140   16.8770   30.9140 oh         2 MGO     -0.586639
     28 HO2        23.9190   17.8450   30.9520 ho         2 MGO      0.425065
     29 C3         21.9950   15.9830   31.9860 c3         2 MGO      0.093211
     30 H3         21.4530   16.8500   31.5990 h1         2 MGO      0.064468
     31 O3         21.9500   14.9000   31.0410 oh         2 MGO     -0.592567
     32 HO3        22.6340   15.0830   30.3820 ho         2 MGO      0.421017
     33 C4         21.3730   15.5310   33.3000 c3         2 MGO      0.127621
     34 H4         21.7920   14.5610   33.5800 h1         2 MGO      0.080661
     35 C5         21.6110   16.5560   34.4250 c3         2 MGO      0.104343
     36 H5         21.0820   17.4710   34.1500 h1         2 MGO      0.068516
     37 O5         23.0610   16.8760   34.5060 os         2 MGO     -0.427383
     38 C6         21.1100   16.1850   35.8280 c3         2 MGO      0.141081
     39 H61        20.0970   16.5650   35.9700 h1         2 MGO      0.057384
     40 H62        21.7510   16.6390   36.5880 h1         2 MGO      0.057384
     41 O6         21.0930   14.7630   36.0050 oh         2 MGO     -0.593555
     42 HO6        20.2280   14.4370   35.7220 ho         2 MGO      0.422027
     43 C1         23.0040   22.7500   33.0110 c3         3 MGO      0.304529
     44 H1         23.3460   23.7990   33.1030 h2         3 MGO      0.090782
     45 O1         21.5790   22.6780   32.6660 os         3 MGO     -0.453070
     46 C2         23.7980   22.0770   31.8980 c3         3 MGO      0.092199
     47 H2         24.8690   22.1390   32.1120 h1         3 MGO      0.102926
     48 O2         23.5100   22.7310   30.6510 oh         3 MGO     -0.586639
     49 HO2        22.6760   23.2200   30.7270 ho         3 MGO      0.425065
     50 C3         23.3750   20.6300   31.7480 c3         3 MGO      0.093211
     51 H3         22.3350   20.5920   31.4110 h1         3 MGO      0.064468
     52 O3         24.2410   20.0420   30.7630 oh         3 MGO     -0.592567
     53 HO3        24.3940   20.7200   30.0920 ho         3 MGO      0.421017
     54 C4         23.5180   19.8750   33.0620 c3         3 MGO      0.127621
     55 H4         24.5800   19.7540   33.2920 h1         3 MGO      0.080661
     56 C5         22.8050   20.6030   34.2170 c3         3 MGO      0.104343
     57 H5         21.7370   20.6010   33.9940 h1         3 MGO      0.068516
     58 O5         23.2580   22.0190   34.2670 os         3 MGO     -0.427383
     59 C6         22.9430   19.9950   35.6200 c3         3 MGO      0.141081
     60 H61        22.1140   19.3090   35.8070 h1         3 MGO      0.057384
     61 H62        22.9080   20.7820   36.3760 h1         3 MGO      0.057384
     62 O6         24.1730   19.2680   35.7430 oh         3 MGO     -0.593555
     63 HO6        24.0080   18.3550   35.4750 ho         3 MGO      0.422027
     64 C1         18.0790   24.9020   33.0000 c3         4 MGO      0.304529
     65 H1         17.3460   25.7240   33.1200 h2         4 MGO      0.090782
     66 O1         17.4110   23.6290   32.6960 os         4 MGO     -0.453070
     67 C2         19.0040   25.2440   31.8370 c3         4 MGO      0.092199
     68 H2         19.4950   26.2040   32.0200 h1         4 MGO      0.102926
     69 O2         18.2330   25.3120   30.6260 oh         4 MGO     -0.586639
     70 HO2        17.3970   24.8360   30.7460 ho         4 MGO      0.425065
     71 C3         20.0350   24.1510   31.6440 c3         4 MGO      0.093211
     72 H3         19.5310   23.2300   31.3390 h1         4 MGO      0.064468
     73 O3         20.9290   24.5980   30.6120 oh         4 MGO     -0.592567
     74 HO3        20.3870   25.0650   29.9620 ho         4 MGO      0.421017
     75 C4         20.8220   23.9070   32.9240 c3         4 MGO      0.127621
     76 H4         21.4700   24.7660   33.1160 h1         4 MGO      0.080661
     77 C5         19.8940   23.6630   34.1270 c3         4 MGO      0.104343
     78 H5         19.3500   22.7360   33.9370 h1         4 MGO      0.068516
     79 O5         18.8990   24.7640   34.2170 os         4 MGO     -0.427383
     80 C6         20.5570   23.4890   35.5010 c3         4 MGO      0.141081
     81 H61        20.7450   22.4290   35.6880 h1         4 MGO      0.057384
     82 H62        19.8960   23.8590   36.2880 h1         4 MGO      0.057384
     83 O6         21.8060   24.1890   35.5580 oh         4 MGO     -0.593555
     84 HO6        22.5000   23.5870   35.2610 ho         4 MGO      0.422027
     85 C1         13.7540   21.7170   33.2240 c3         5 MGO      0.304529
     86 H1         12.6830   21.4960   33.4000 h2         5 MGO      0.090782
     87 O1         14.5060   20.5000   32.8930 os         5 MGO     -0.453070
     88 C2         13.8640   22.6800   32.0470 c3         5 MGO      0.092199
     89 H2         13.2890   23.5880   32.2520 h1         5 MGO      0.102926
     90 O2         13.3610   22.0370   30.8640 oh         5 MGO     -0.586639
     91 HO2        13.3600   21.0770   30.9930 ho         5 MGO      0.425065
     92 C3         15.3150   23.0240   31.7810 c3         5 MGO      0.093211
     93 H3         15.8450   22.1240   31.4560 h1         5 MGO      0.064468
     94 O3         15.3250   24.0140   30.7390 oh         5 MGO     -0.592567
     95 HO3        14.6190   23.7730   30.1250 ho         5 MGO      0.421017
     96 C4         15.9830   23.5940   33.0250 c3         5 MGO      0.127621
     97 H4         15.5740   24.5860   33.2290 h1         5 MGO      0.080661
     98 C5         15.7880   22.6770   34.2470 c3         5 MGO      0.104343
     99 H5         16.3080   21.7390   34.0390 h1         5 MGO      0.068516
    100 O5         14.3430   22.3680   34.4090 os         5 MGO     -0.427383
    101 C6         16.3380   23.1750   35.5910 c3         5 MGO      0.141081
    102 H61        17.3570   22.8060   35.7310 h1         5 MGO      0.057384
    103 H62        15.7260   22.7930   36.4120 h1         5 MGO      0.057384
    104 O6         16.3590   24.6070   35.6360 oh         5 MGO     -0.593555
    105 HO6        17.2120   24.9030   35.2940 ho         5 MGO      0.422027
    106 C1         14.3560   16.3810   33.4600 c3         6 MGO      0.304529
    107 H1         14.0190   15.3440   33.6600 h2         6 MGO      0.090782
    108 O1         15.7670   16.4180   33.0580 os         6 MGO     -0.453070
    109 C2         13.5210   16.9500   32.3180 c3         6 MGO      0.092199
    110 H2         12.4580   16.9090   32.5750 h1         6 MGO      0.102926
    111 O2         13.7660   16.1840   31.1270 oh         6 MGO     -0.586639
    112 HO2        14.6020   15.7020   31.2180 ho         6 MGO      0.425065
    113 C3         13.9360   18.3760   32.0200 c3         6 MGO      0.093211
    114 H3         14.9630   18.3810   31.6450 h1         6 MGO      0.064468
    115 O3         13.0340   18.8730   31.0190 oh         6 MGO     -0.592567
    116 HO3        12.8580   18.1360   30.4170 ho         6 MGO      0.421017
    117 C4         13.8390   19.2480   33.2640 c3         6 MGO      0.127621
    118 H4         12.7860   19.3920   33.5200 h1         6 MGO      0.080661
    119 C5         14.5940   18.6300   34.4540 c3         6 MGO      0.104343
    120 H5         15.6540   18.6080   34.1950 h1         6 MGO      0.068516
    121 O5         14.1460   17.2240   34.6500 os         6 MGO     -0.427383
    122 C6         14.5050   19.3650   35.8000 c3         6 MGO      0.141081
    123 H61        15.3400   20.0630   35.8940 h1         6 MGO      0.057384
    124 H62        14.5690   18.6500   36.6240 h1         6 MGO      0.057384
    125 O6         13.2790   20.1010   35.8990 oh         6 MGO     -0.593555
    126 HO6        13.4330   20.9860   35.5430 ho         6 MGO      0.422027
@<TRIPOS>BOND
    1    17    20 1
    2    14    16 1
    3    14    17 1
    4    12    14 1
    5    12   108 1
    6     8    10 1
    7     8    12 1
    8     4     6 1
    9     4     8 1
   10     3    33 1
   11     1     3 1
   12     1     4 1
   13     1    16 1
   14    38    41 1
   15    35    37 1
   16    35    38 1
   17    33    35 1
   18    29    31 1
   19    29    33 1
   20    25    27 1
   21    25    29 1
   22    24    54 1
   23    22    24 1
   24    22    25 1
   25    22    37 1
   26    59    62 1
   27    56    58 1
   28    56    59 1
   29    54    56 1
   30    50    52 1
   31    50    54 1
   32    46    48 1
   33    46    50 1
   34    45    75 1
   35    43    45 1
   36    43    46 1
   37    43    58 1
   38    80    83 1
   39    77    79 1
   40    77    80 1
   41    75    77 1
   42    71    73 1
   43    71    75 1
   44    67    69 1
   45    67    71 1
   46    66    96 1
   47    64    66 1
   48    64    67 1
   49    64    79 1
   50   101   104 1
   51    98   100 1
   52    98   101 1
   53    96    98 1
   54    92    94 1
   55    92    96 1
   56    88    90 1
   57    88    92 1
   58    87   117 1
   59    85    87 1
   60    85    88 1
   61    85   100 1
   62   122   125 1
   63   119   121 1
   64   119   122 1
   65   117   119 1
   66   113   115 1
   67   113   117 1
   68   109   111 1
   69   109   113 1
   70   106   108 1
   71   106   109 1
   72   106   121 1
   73    20    21 1
   74    17    18 1
   75    17    19 1
   76    14    15 1
   77    12    13 1
   78    10    11 1
   79     8     9 1
   80     6     7 1
   81     4     5 1
   82     1     2 1
   83    41    42 1
   84    38    39 1
   85    38    40 1
   86    35    36 1
   87    33    34 1
   88    31    32 1
   89    29    30 1
   90    27    28 1
   91    25    26 1
   92    22    23 1
   93    62    63 1
   94    59    60 1
   95    59    61 1
   96    56    57 1
   97    54    55 1
   98    52    53 1
   99    50    51 1
  100    48    49 1
  101    46    47 1
  102    43    44 1
  103    83    84 1
  104    80    81 1
  105    80    82 1
  106    77    78 1
  107    75    76 1
  108    73    74 1
  109    71    72 1
  110    69    70 1
  111    67    68 1
  112    64    65 1
  113   104   105 1
  114   101   102 1
  115   101   103 1
  116    98    99 1
  117    96    97 1
  118    94    95 1
  119    92    93 1
  120    90    91 1
  121    88    89 1
  122    85    86 1
  123   125   126 1
  124   122   123 1
  125   122   124 1
  126   119   120 1
  127   117   118 1
  128   115   116 1
  129   113   114 1
  130   111   112 1
  131   109   110 1
  132   106   107 1
@<TRIPOS>SUBSTRUCTURE
      1 MGO               1 ****               0 ****  **** 
      2 MGO              22 ****               0 ****  **** 
      3 MGO              43 ****               0 ****  **** 
      4 MGO              64 ****               0 ****  **** 
      5 MGO              85 ****               0 ****  **** 
      6 MGO             106 ****               0 ****  **** 
