@<TRIPOS>MOLECULE
Cpptraj generated mol2 file.
   13    13     1     0     0
SMALL
USER_CHARGES


@<TRIPOS>ATOM
      1 C1         18.5400   19.5020   34.0340 cy         1 CBU     -0.089350
      2 H2         17.5580   19.6810   33.5800 hc         1 CBU      0.050728
      3 H3         19.2740   19.3670   33.2330 hc         1 CBU      0.050728
      4 C2         18.5540   18.4300   35.1670 cy         1 CBU     -0.108839
      5 H4         17.8570   17.5960   35.0490 hc         1 CBU      0.057982
      6 H5         19.5460   18.0240   35.4040 hc         1 CBU      0.057982
      7 C3         18.0780   19.5880   36.0920 cy         1 CBU      0.118166
      8 H6         16.9970   19.7810   36.0490 h1         1 CBU      0.042724
      9 C4         18.9330   20.5030   35.1650 cy         1 CBU     -0.108839
     10 H7         20.0030   20.5330   35.4000 hc         1 CBU      0.057982
     11 H8         18.5750   21.5300   35.0440 hc         1 CBU      0.057982
     12 O1         18.5400   19.5020   37.4310 oh         1 CBU     -0.587471
     13 H1         18.2500   20.3470   37.8830 ho         1 CBU      0.400225
@<TRIPOS>BOND
    1     7     9 1
    2     7    12 1
    3     4     7 1
    4     1     4 1
    5     1     9 1
    6    12    13 1
    7     9    10 1
    8     9    11 1
    9     7     8 1
   10     4     5 1
   11     4     6 1
   12     1     2 1
   13     1     3 1
@<TRIPOS>SUBSTRUCTURE
      1 CBU               1 ****               0 ****  **** 
