@<TRIPOS>MOLECULE
Cpptraj
  126   132     1     0     0
SMALL
No Charge or Current Charge


@<TRIPOS>ATOM
      1 C1          23.9870    18.6700    31.7470 C.3        1 MGO       0.304529
      2 H1          24.9730    19.1580    31.8650 H          1 MGO       0.090782
      3 O1          22.9480    19.6390    31.3810 O.3        1 MGO      -0.453070
      4 C2          24.0860    17.6370    30.6300 C.3        1 MGO       0.092199
      5 H2          24.8740    16.9140    30.8600 H          1 MGO       0.102926
      6 O2          24.3830    18.3070    29.3940 O.3        1 MGO      -0.586639
      7 HO2         24.1480    19.2440    29.4690 H          1 MGO       0.425065
      8 C3          22.7590    16.9280    30.4440 C.3        1 MGO       0.093211
      9 H3          22.0150    17.6480    30.0940 H          1 MGO       0.064468
     10 O3          22.9680    15.9040    29.4600 O.3        1 MGO      -0.592567
     11 HO3         23.5760    16.2710    28.8030 H          1 MGO       0.421017
     12 C4          22.2880    16.2930    31.7440 C.3        1 MGO       0.127621
     13 H4          22.9370    15.4470    31.9860 H          1 MGO       0.080661
     14 C5          22.2830    17.3050    32.9040 C.3        1 MGO       0.104343
     15 H5          21.5410    18.0710    32.6660 H          1 MGO       0.068516
     16 O5          23.6100    17.9710    32.9900 O.3        1 MGO      -0.427383
     17 C6          21.9090    16.7750    34.2960 C.3        1 MGO       0.141081
     18 H61         20.8350    16.8890    34.4580 H          1 MGO       0.057384
     19 H62         22.4300    17.3460    35.0690 H          1 MGO       0.057384
     20 O6          22.2460    15.3860    34.4200 O.3        1 MGO      -0.593555
     21 HO6         21.4840    14.8670    34.1310 H          1 MGO       0.422027
     22 C1          22.0850    23.6970    31.7150 C.3        2 MGO       0.304529
     23 H1          22.1570    24.7950    31.8430 H          2 MGO       0.090782
     24 O1          20.7150    23.2870    31.3750 O.3        2 MGO      -0.453070
     25 C2          23.0030    23.2800    30.5720 C.3        2 MGO       0.092199
     26 H2          24.0280    23.5990    30.7810 H          2 MGO       0.102926
     27 O2          22.5420    23.8840    29.3530 O.3        2 MGO      -0.586639
     28 HO2         21.6160    24.1500    29.4510 H          2 MGO       0.425065
     29 C3          22.9480    21.7790    30.3710 C.3        2 MGO       0.093211
     30 H3          21.9430    21.4960    30.0400 H          2 MGO       0.064468
     31 O3          23.9160    21.4570    29.3600 O.3        2 MGO      -0.592567
     32 HO3         23.8870    22.1760    28.7120 H          2 MGO       0.421017
     33 C4          23.2920    21.0380    31.6550 C.3        2 MGO       0.127621
     34 H4          24.3540    21.1740    31.8730 H          2 MGO       0.080661
     35 C5          22.4390    21.5260    32.8410 C.3        2 MGO       0.104343
     36 H5          21.4010    21.2690    32.6240 H          2 MGO       0.068516
     37 O5          22.5290    23.0090    32.9400 O.3        2 MGO      -0.427383
     38 C6          22.7450    20.9230    34.2190 C.3        2 MGO       0.141081
     39 H61         22.1130    20.0480    34.3870 H          2 MGO       0.057384
     40 H62         22.5280    21.6510    35.0050 H          2 MGO       0.057384
     41 O6          24.1170    20.5190    34.3070 O.3        2 MGO      -0.593555
     42 HO6         24.1790    19.6020    34.0060 H          2 MGO       0.422027
     43 C1          16.7800    24.5640    31.8130 C.3        3 MGO       0.304529
     44 H1          15.8700    25.1760    31.9710 H          3 MGO       0.090782
     45 O1          16.4430    23.1790    31.4670 O.3        3 MGO      -0.453070
     46 C2          17.5750    25.1640    30.6600 C.3        3 MGO       0.092199
     47 H2          17.8170    26.2080    30.8750 H          3 MGO       0.102926
     48 O2          16.7940    25.0820    29.4570 O.3        3 MGO      -0.586639
     49 HO2         16.1020    24.4110    29.5640 H          3 MGO       0.425065
     50 C3          18.8420    24.3680    30.4200 C.3        3 MGO       0.093211
     51 H3          18.5750    23.3610    30.0840 H          3 MGO       0.064468
     52 O3          19.5820    25.0580    29.4000 O.3        3 MGO      -0.592567
     53 HO3         18.9300    25.3980    28.7710 H          3 MGO       0.421017
     54 C4          19.6840    24.2800    31.6850 C.3        3 MGO       0.127621
     55 H4          20.1020    25.2670    31.9050 H          3 MGO       0.080661
     56 C5          18.8620    23.7740    32.8840 C.3        3 MGO       0.104343
     57 H5          18.5600    22.7490    32.6630 H          3 MGO       0.068516
     58 O5          17.6270    24.5920    33.0210 O.3        3 MGO      -0.427383
     59 C6          19.5690    23.7220    34.2460 C.3        3 MGO       0.141081
     60 H61         20.0130    22.7340    34.3920 H          3 MGO       0.057384
     61 H62         18.8480    23.8880    35.0500 H          3 MGO       0.057384
     62 O6          20.6080    24.7070    34.3210 O.3        3 MGO      -0.593555
     63 HO6         21.4230    24.3040    33.9970 H          3 MGO       0.422027
     64 C1          13.3790    20.4040    31.9450 C.3        4 MGO       0.304529
     65 H1          12.3970    19.9190    32.1170 H          4 MGO       0.090782
     66 O1          14.4010    19.4230    31.5630 O.3        4 MGO      -0.453070
     67 C2          13.2290    21.4060    30.8040 C.3        4 MGO       0.092199
     68 H2          12.4520    22.1360    31.0460 H          4 MGO       0.102926
     69 O2          12.8830    20.7020    29.6010 O.3        4 MGO      -0.586639
     70 HO2         13.1200    19.7660    29.6920 H          4 MGO       0.425065
     71 C3          14.5470    22.1060    30.5420 C.3        4 MGO       0.093211
     72 H3          15.2780    21.3780    30.1810 H          4 MGO       0.064468
     73 O3          14.2970    23.1030    29.5390 O.3        4 MGO      -0.592567
     74 HO3         13.6630    22.7180    28.9190 H          4 MGO       0.421017
     75 C4          15.0730    22.7790    31.8020 C.3        4 MGO       0.127621
     76 H4          14.4340    23.6310    32.0470 H          4 MGO       0.080661
     77 C5          15.1290    21.8000    32.9890 C.3        4 MGO       0.104343
     78 H5          15.8590    21.0290    32.7440 H          4 MGO       0.068516
     79 O5          13.8050    21.1390    33.1500 O.3        4 MGO      -0.427383
     80 C6          15.5590    22.3710    34.3490 C.3        4 MGO       0.141081
     81 H61         16.6390    22.2630    34.4690 H          4 MGO       0.057384
     82 H62         15.0720    21.8230    35.1590 H          4 MGO       0.057384
     83 O6          15.2270    23.7610    34.4470 O.3        4 MGO      -0.593555
     84 HO6         15.9760    24.2720    34.1120 H          4 MGO       0.422027
     85 C1          15.2800    15.3770    31.9770 C.3        5 MGO       0.304529
     86 H1          15.2130    14.2840    32.1400 H          5 MGO       0.090782
     87 O1          16.6340    15.7770    31.5690 O.3        5 MGO      -0.453070
     88 C2          14.3140    15.7620    30.8620 C.3        5 MGO       0.092199
     89 H2          13.2990    15.4510    31.1240 H          5 MGO       0.102926
     90 O2          14.7240    15.1220    29.6430 O.3        5 MGO      -0.586639
     91 HO2         15.6540    14.8600    29.7110 H          5 MGO       0.425065
     92 C3          14.3600    17.2560    30.6160 C.3        5 MGO       0.093211
     93 H3          15.3490    17.5280    30.2340 H          5 MGO       0.064468
     94 O3          13.3490    17.5490    29.6380 O.3        5 MGO      -0.592567
     95 HO3         13.3510    16.8130    29.0110 H          5 MGO       0.421017
     96 C4          14.0680    18.0340    31.8910 C.3        5 MGO       0.127621
     97 H4          13.0180    17.9050    32.1580 H          5 MGO       0.080661
     98 C5          14.9710    17.5800    33.0540 C.3        5 MGO       0.104343
     99 H5          16.0000    17.8290    32.7870 H          5 MGO       0.068516
    100 O5          14.8860    16.1010    33.1990 O.3        5 MGO      -0.427383
    101 C6          14.7230    18.2230    34.4260 C.3        5 MGO       0.141081
    102 H61         15.3610    19.1020    34.5410 H          5 MGO       0.057384
    103 H62         14.9730    17.5170    35.2230 H          5 MGO       0.057384
    104 O6          13.3550    18.6300    34.5600 O.3        5 MGO      -0.593555
    105 HO6         13.2810    19.5360    34.2360 H          5 MGO       0.422027
    106 C1          20.5850    14.5110    31.8780 C.3        6 MGO       0.304529
    107 H1          21.5010    13.9030    32.0140 H          6 MGO       0.090782
    108 O1          20.9060    15.8850    31.4770 O.3        6 MGO      -0.453070
    109 C2          19.7420    13.8780    30.7760 C.3        6 MGO       0.092199
    110 H2          19.5090    12.8410    31.0320 H          6 MGO       0.102926
    111 O2          20.4730    13.9250    29.5390 O.3        6 MGO      -0.586639
    112 HO2         21.1670    14.5990    29.5980 H          6 MGO       0.425065
    113 C3          18.4670    14.6680    30.5670 C.3        6 MGO       0.093211
    114 H3          18.7170    15.6640    30.1910 H          6 MGO       0.064468
    115 O3          17.6840    13.9480    29.6000 O.3        6 MGO      -0.592567
    116 HO3         18.3080    13.5900    28.9530 H          6 MGO       0.421017
    117 C4          17.6790    14.7910    31.8620 C.3        6 MGO       0.127621
    118 H4          17.2680    13.8130    32.1290 H          6 MGO       0.080661
    119 C5          18.5480    15.3320    33.0110 C.3        6 MGO       0.104343
    120 H5          18.8410    16.3510    32.7490 H          6 MGO       0.068516
    121 O5          19.7890    14.5170    33.1190 O.3        6 MGO      -0.427383
    122 C6          17.9000    15.4250    34.3990 C.3        6 MGO       0.141081
    123 H61         17.4600    16.4160    34.5350 H          6 MGO       0.057384
    124 H62         18.6520    15.2810    35.1780 H          6 MGO       0.057384
    125 O6          16.8660    14.4430    34.5470 O.3        6 MGO      -0.593555
    126 HO6         16.0360    14.8350    34.2460 H          6 MGO       0.422027
@<TRIPOS>BOND
     1    17    20 1   
     2    14    16 1   
     3    14    17 1   
     4    12    14 1   
     5    12   108 1   
     6     8    10 1   
     7     8    12 1   
     8     4     6 1   
     9     4     8 1   
    10     3    33 1   
    11     1     3 1   
    12     1     4 1   
    13     1    16 1   
    14    38    41 1   
    15    35    37 1   
    16    35    38 1   
    17    33    35 1   
    18    29    31 1   
    19    29    33 1   
    20    25    27 1   
    21    25    29 1   
    22    24    54 1   
    23    22    24 1   
    24    22    25 1   
    25    22    37 1   
    26    59    62 1   
    27    56    58 1   
    28    56    59 1   
    29    54    56 1   
    30    50    52 1   
    31    50    54 1   
    32    46    48 1   
    33    46    50 1   
    34    45    75 1   
    35    43    45 1   
    36    43    46 1   
    37    43    58 1   
    38    80    83 1   
    39    77    79 1   
    40    77    80 1   
    41    75    77 1   
    42    71    73 1   
    43    71    75 1   
    44    67    69 1   
    45    67    71 1   
    46    66    96 1   
    47    64    66 1   
    48    64    67 1   
    49    64    79 1   
    50   101   104 1   
    51    98   100 1   
    52    98   101 1   
    53    96    98 1   
    54    92    94 1   
    55    92    96 1   
    56    88    90 1   
    57    88    92 1   
    58    87   117 1   
    59    85    87 1   
    60    85    88 1   
    61    85   100 1   
    62   122   125 1   
    63   119   121 1   
    64   119   122 1   
    65   117   119 1   
    66   113   115 1   
    67   113   117 1   
    68   109   111 1   
    69   109   113 1   
    70   106   108 1   
    71   106   109 1   
    72   106   121 1   
    73    20    21 1   
    74    17    18 1   
    75    17    19 1   
    76    14    15 1   
    77    12    13 1   
    78    10    11 1   
    79     8     9 1   
    80     6     7 1   
    81     4     5 1   
    82     1     2 1   
    83    41    42 1   
    84    38    39 1   
    85    38    40 1   
    86    35    36 1   
    87    33    34 1   
    88    31    32 1   
    89    29    30 1   
    90    27    28 1   
    91    25    26 1   
    92    22    23 1   
    93    62    63 1   
    94    59    60 1   
    95    59    61 1   
    96    56    57 1   
    97    54    55 1   
    98    52    53 1   
    99    50    51 1   
   100    48    49 1   
   101    46    47 1   
   102    43    44 1   
   103    83    84 1   
   104    80    81 1   
   105    80    82 1   
   106    77    78 1   
   107    75    76 1   
   108    73    74 1   
   109    71    72 1   
   110    69    70 1   
   111    67    68 1   
   112    64    65 1   
   113   104   105 1   
   114   101   102 1   
   115   101   103 1   
   116    98    99 1   
   117    96    97 1   
   118    94    95 1   
   119    92    93 1   
   120    90    91 1   
   121    88    89 1   
   122    85    86 1   
   123   125   126 1   
   124   122   123 1   
   125   122   124 1   
   126   119   120 1   
   127   117   118 1   
   128   115   116 1   
   129   113   114 1   
   130   111   112 1   
   131   109   110 1   
   132   106   107 1   
@<TRIPOS>SUBSTRUCTURE
     1 MGO         1 TEMP              0 ****  ****    0 ROOT
