@<TRIPOS>MOLECULE
MO4
   21    21     1     0     0
SMALL
bcc


@<TRIPOS>ATOM
      1 C1          1.3680   -0.3920    6.2680  c        1 MO4      0.917404
      2 O1          1.6080   -1.5640    6.5070  o        1 MO4     -0.842980
      3 O2          2.2020    0.4740    6.4830  o        1 MO4     -0.842980
      4 C2          0.0000   -0.0000    5.7100 c3        1 MO4     -0.171137
      5 H1         -0.2820    0.9970    6.0660 hc        1 MO4      0.036692
      6 H2         -0.7700   -0.6820    6.0850 hc        1 MO4      0.036692
      7 C3         -0.0020   -0.0170    4.1890 ca        1 MO4     -0.041309
      8 C4         -0.3410   -1.1820    3.4970 ca        1 MO4     -0.111024
      9 H3         -0.6030   -2.0850    4.0500 ha        1 MO4      0.156467
     10 C5         -0.3460   -1.1990    2.1010 ca        1 MO4     -0.184539
     11 H4         -0.6140   -2.1160    1.5840 ha        1 MO4      0.121474
     12 C6         -0.0110   -0.0450    1.3830 ca        1 MO4      0.075084
     13 O3          0.0000   -0.0000   -0.0000 os        1 MO4     -0.346974
     14 C7         -0.3320   -1.1410   -0.8290 c3        1 MO4      0.121674
     15 H5         -0.2500   -0.8540   -1.8810 h1        1 MO4      0.031026
     16 H6         -1.3590   -1.4610   -0.6220 h1        1 MO4      0.031026
     17 H7          0.3620   -1.9610   -0.6230 h1        1 MO4      0.031026
     18 C8          0.3260    1.1160    2.0740 ca        1 MO4     -0.184539
     19 H8          0.5870    2.0140    1.5180 ha        1 MO4      0.121474
     20 C9          0.3320    1.1330    3.4700 ca        1 MO4     -0.111024
     21 H9          0.5990    2.0480    4.0000 ha        1 MO4      0.156467
@<TRIPOS>BOND
     1    1    2 1   
     2    1    3 1   
     3    1    4 1   
     4    4    5 1   
     5    4    6 1   
     6    4    7 1   
     7    7    8 ar  
     8    7   20 ar  
     9    8    9 1   
    10    8   10 ar  
    11   10   11 1   
    12   10   12 ar  
    13   12   13 1   
    14   12   18 ar  
    15   13   14 1   
    16   14   15 1   
    17   14   16 1   
    18   14   17 1   
    19   18   19 1   
    20   18   20 ar  
    21   20   21 1   
@<TRIPOS>SUBSTRUCTURE
     1 MO4         1 TEMP              0 ****  ****    0 ROOT
