@<TRIPOS>MOLECULE
Cpptraj generated mol2 file.
   13    13     1     0     0
SMALL
USER_CHARGES


@<TRIPOS>ATOM
      1 C1         19.8050   19.9580   33.3460 cy         1 CBU     -0.089350
      2 H2         19.0280   20.5840   32.8920 hc         1 CBU      0.050728
      3 H3         20.3860   19.4890   32.5450 hc         1 CBU      0.050728
      4 C2         19.3060   19.0090   34.4790 cy         1 CBU     -0.108839
      5 H4         18.2960   18.6090   34.3610 hc         1 CBU      0.057982
      6 H5         19.9830   18.1790   34.7160 hc         1 CBU      0.057982
      7 C3         19.4410   20.2540   35.4040 cy         1 CBU      0.118166
      8 H6         18.5830   20.9410   35.3610 h1         1 CBU      0.042724
      9 C4         20.6280   20.6490   34.4770 cy         1 CBU     -0.108839
     10 H7         21.5820   20.1650   34.7120 hc         1 CBU      0.057982
     11 H8         20.8030   21.7230   34.3560 hc         1 CBU      0.057982
     12 O1         19.8050   19.9580   36.7430 oh         1 CBU     -0.587471
     13 H1         19.9540   20.8380   37.1950 ho         1 CBU      0.400225
@<TRIPOS>BOND
    1     7     9 1
    2     7    12 1
    3     4     7 1
    4     1     4 1
    5     1     9 1
    6    12    13 1
    7     9    10 1
    8     9    11 1
    9     7     8 1
   10     4     5 1
   11     4     6 1
   12     1     2 1
   13     1     3 1
@<TRIPOS>SUBSTRUCTURE
      1 CBU               1 ****               0 ****  **** 
