@<TRIPOS>MOLECULE
MP3
   20    20     1     0     0
SMALL
bcc


@<TRIPOS>ATOM
      1 C1         -0.3530   -1.3750    4.8710  c        1 MP3      0.917600
      2 O1         -1.5140   -1.6330    5.1490  o        1 MP3     -0.842300
      3 O2          0.5310   -2.1970    5.0470  o        1 MP3     -0.842300
      4 C2          0.0000    0.0000    4.3150 c3        1 MP3     -0.175100
      5 H1          0.9840    0.3100    4.6810 hc        1 MP3      0.037200
      6 H2         -0.7090    0.7480    4.6820 hc        1 MP3      0.037200
      7 C3         -0.0010   -0.0030    2.7940 ca        1 MP3     -0.013300
      8 C4         -1.1660    0.3130    2.0890 ca        1 MP3     -0.156000
      9 H3         -2.0780    0.5580    2.6300 ha        1 MP3      0.118000
     10 C5         -1.1660    0.3150    0.6950 ca        1 MP3     -0.145000
     11 H4         -2.0770    0.5630    0.1510 ha        1 MP3      0.103000
     12 C6         -0.0000   -0.0000    0.0000 ca        1 MP3     -0.165000
     13 H5         -0.0020    0.0040   -1.0880 ha        1 MP3      0.104000
     14 C7          1.1680   -0.3200    0.6940 ca        1 MP3     -0.096300
     15 C8          1.1620   -0.3170    2.0890 ca        1 MP3     -0.119000
     16 H6          2.0730   -0.5610    2.6310 ha        1 MP3      0.187000
     17 C9          2.4380   -0.6580   -0.0630 c3        1 MP3     -0.041800
     18 H7          3.0270   -1.4010    0.4800 hc        1 MP3      0.030700
     19 H8          2.2080   -1.0650   -1.0500 hc        1 MP3      0.030700
     20 H9          3.0490    0.2370   -0.1940 hc        1 MP3      0.030700
@<TRIPOS>BOND
     1    1    2 1   
     2    1    3 1   
     3    1    4 1   
     4    4    5 1   
     5    4    6 1   
     6    4    7 1   
     7    7    8 ar  
     8    7   15 ar  
     9    8    9 1   
    10    8   10 ar  
    11   10   11 1   
    12   10   12 ar  
    13   12   13 1   
    14   12   14 ar  
    15   14   15 ar  
    16   14   17 1   
    17   15   16 1   
    18   17   18 1   
    19   17   19 1   
    20   17   20 1   
@<TRIPOS>SUBSTRUCTURE
     1 MP3         1 TEMP              0 ****  ****    0 ROOT
