@<TRIPOS>MOLECULE
HX2
   17    16     1     0     0
SMALL
bcc


@<TRIPOS>ATOM
      1 C1          0.0000    0.0000    6.1170  c        1 HX2      0.891800
      2 O1         -0.2170    1.1200    6.5430  o        1 HX2     -0.843800
      3 O2         -0.0730   -0.9820    6.8320  o        1 HX2     -0.843800
      4 C2          0.3660   -0.2000    4.6870 ce        1 HX2     -0.194200
      5 H1          0.5410   -1.2340    4.3920 ha        1 HX2      0.094000
      6 C3          0.4820    0.7950    3.7830 c2        1 HX2     -0.220200
      7 H2          0.3080    1.8320    4.0660 ha        1 HX2      0.133000
      8 C4          0.8560    0.5580    2.3340 c3        1 HX2     -0.034200
      9 H3          1.5790   -0.2580    2.2650 hc        1 HX2      0.023700
     10 H4          1.3430    1.4520    1.9380 hc        1 HX2      0.023700
     11 C5         -0.3830    0.2270    1.4750 c3        1 HX2     -0.079400
     12 H5         -0.8710   -0.6720    1.8610 hc        1 HX2      0.039200
     13 H6         -1.1030    1.0460    1.5370 hc        1 HX2      0.039200
     14 C6          0.0000    0.0000   -0.0000 c3        1 HX2     -0.089100
     15 H7          0.7010   -0.8340   -0.0930 hc        1 HX2      0.020033
     16 H8         -0.8890   -0.2330   -0.5890 hc        1 HX2      0.020033
     17 H9          0.4660    0.8940   -0.4200 hc        1 HX2      0.020034
@<TRIPOS>BOND
     1    1    2 1   
     2    1    3 1   
     3    1    4 1   
     4    4    5 1   
     5    4    6 2   
     6    6    7 1   
     7    6    8 1   
     8    8    9 1   
     9    8   10 1   
    10    8   11 1   
    11   11   12 1   
    12   11   13 1   
    13   11   14 1   
    14   14   15 1   
    15   14   16 1   
    16   14   17 1   
@<TRIPOS>SUBSTRUCTURE
     1 HX2         1 TEMP              0 ****  ****    0 ROOT
