@<TRIPOS>MOLECULE
NMH
   26    25     1     0     0
SMALL
bcc


@<TRIPOS>ATOM
      1 N1         -0.0000    0.0000    7.6510 n4        1 NMH     -0.759223
      2 H1          0.8160   -0.6390    7.6800 hn        1 NMH      0.454667
      3 H18        -0.8380   -0.6090    7.6800 hn        1 NMH      0.454667
      4 C1          0.0140    0.7950    6.3670 c3        1 NMH      0.099771
      5 H2          0.9140    1.4160    6.3850 hx        1 NMH      0.109668
      6 H3         -0.8620    1.4480    6.3850 hx        1 NMH      0.109668
      7 C2         -0.0010   -0.0710    5.0930 c3        1 NMH     -0.111433
      8 H4          0.8700   -0.7310    5.0880 hc        1 NMH      0.068680
      9 H5         -0.8960   -0.7000    5.0880 hc        1 NMH      0.068680
     10 C3          0.0150    0.8160    3.8310 c3        1 NMH     -0.078423
     11 H6          0.9080    1.4450    3.8400 hc        1 NMH      0.056683
     12 H7         -0.8560    1.4770    3.8400 hc        1 NMH      0.056683
     13 C4         -0.0010   -0.0380    2.5460 c3        1 NMH     -0.080424
     14 H8          0.8700   -0.6990    2.5360 hc        1 NMH      0.048686
     15 H9         -0.8940   -0.6670    2.5360 hc        1 NMH      0.048686
     16 C5          0.0150    0.8500    1.2840 c3        1 NMH     -0.079423
     17 H10         0.9090    1.4800    1.2880 hc        1 NMH      0.044687
     18 H11        -0.8550    1.5120    1.2880 hc        1 NMH      0.044687
     19 C6         -0.0000    0.0000    0.0000 c3        1 NMH     -0.097128
     20 H12         0.8750   -0.6520   -0.0410 hc        1 NMH      0.042687
     21 H13         0.0120    0.6450   -0.8810 hc        1 NMH      0.042687
     22 H14        -0.8980   -0.6200   -0.0410 hc        1 NMH      0.042687
     23 C7          0.0170    0.9300    8.8440 c3        1 NMH      0.078077
     24 H15        -0.8690    1.5700    8.8040 hx        1 NMH      0.111334
     25 H16         0.0060    0.3310    9.7580 hx        1 NMH      0.111334
     26 H17         0.9250    1.5380    8.8040 hx        1 NMH      0.111335
@<TRIPOS>BOND
     1    1    2 1   
     2    1    3 1   
     3    1    4 1   
     4    1   23 1   
     5    4    5 1   
     6    4    6 1   
     7    4    7 1   
     8    7    8 1   
     9    7    9 1   
    10    7   10 1   
    11   10   11 1   
    12   10   12 1   
    13   10   13 1   
    14   13   14 1   
    15   13   15 1   
    16   13   16 1   
    17   16   17 1   
    18   16   18 1   
    19   16   19 1   
    20   19   20 1   
    21   19   21 1   
    22   19   22 1   
    23   23   24 1   
    24   23   25 1   
    25   23   26 1   
@<TRIPOS>SUBSTRUCTURE
     1 NMH         1 TEMP              0 ****  ****    0 ROOT
