@<TRIPOS>MOLECULE
Cpptraj
  147   154     1     0     0
SMALL
No Charge or Current Charge


@<TRIPOS>ATOM
      1 C1          25.3990    17.6250    34.8290 C.3        1 MGO       0.304529
      2 H1          26.4890    17.7770    34.9590 H          1 MGO       0.090782
      3 O1          24.7130    18.8870    34.5270 O.3        1 MGO      -0.453070
      4 C2          25.1900    16.6610    33.6650 C.3        1 MGO       0.092199
      5 H2          25.7420    15.7360    33.8500 H          1 MGO       0.102926
      6 O2          25.6540    17.2650    32.4460 O.3        1 MGO      -0.586639
      7 HO2         25.7380    18.2260    32.5620 H          1 MGO       0.425065
      8 C3          23.7180    16.3590    33.4760 C.3        1 MGO       0.093211
      9 H3          23.1920    17.2720    33.1810 H          1 MGO       0.064468
     10 O3          23.6310    15.3640    32.4430 O.3        1 MGO      -0.592567
     11 HO3         24.3110    15.5890    31.7930 H          1 MGO       0.421017
     12 C4          23.1260    15.8050    34.7620 C.3        1 MGO       0.127621
     13 H4          23.5800    14.8350    34.9750 H          1 MGO       0.080661
     14 C5          23.3710    16.7570    35.9440 C.3        1 MGO       0.104343
     15 H5          22.8700    17.7020    35.7210 H          1 MGO       0.068516
     16 O5          24.8300    17.0260    36.0520 O.3        1 MGO      -0.427383
     17 C6          22.8440    16.3070    37.3140 C.3        1 MGO       0.141081
     18 H61         21.8170    16.6570    37.4460 H          1 MGO       0.057384
     19 H62         23.4540    16.7380    38.1110 H          1 MGO       0.057384
     20 O6          22.8560    14.8770    37.4190 O.3        1 MGO      -0.593555
     21 HO6         22.0090    14.5440    37.0980 H          1 MGO       0.422027
     22 C1          25.5330    22.9880    34.8290 C.3        2 MGO       0.304529
     23 H1          26.0950    23.9350    34.9570 H          2 MGO       0.090782
     24 O1          24.1180    23.2390    34.5260 O.3        2 MGO      -0.453070
     25 C2          26.1560    22.2240    33.6640 C.3        2 MGO       0.092199
     26 H2          27.2240    22.0780    33.8490 H          2 MGO       0.102926
     27 O2          25.9730    22.9620    32.4450 O.3        2 MGO      -0.586639
     28 HO2         25.2740    23.6270    32.5610 H          2 MGO       0.425065
     29 C3          25.4730    20.8840    33.4770 C.3        2 MGO       0.093211
     30 H3          24.4320    21.0410    33.1810 H          2 MGO       0.064468
     31 O3          26.1970    20.1960    32.4440 O.3        2 MGO      -0.592567
     32 HO3         26.4460    20.8680    31.7920 H          2 MGO       0.421017
     33 C4          25.5370    20.0760    34.7620 C.3        2 MGO       0.127621
     34 H4          26.5810    19.8270    34.9750 H          2 MGO       0.080661
     35 C5          24.9470    20.8620    35.9440 C.3        2 MGO       0.104343
     36 H5          23.8970    21.0590    35.7210 H          2 MGO       0.068516
     37 O5          25.6460    22.1700    36.0520 O.3        2 MGO      -0.427383
     38 C6          24.9710    20.1700    37.3140 C.3        2 MGO       0.141081
     39 H61         24.0570    19.5850    37.4470 H          2 MGO       0.057384
     40 H62         25.0140    20.9160    38.1110 H          2 MGO       0.057384
     41 O6          26.0970    19.2890    37.4200 O.3        2 MGO      -0.593555
     42 HO6         25.8290    18.4170    37.0980 H          2 MGO       0.422027
     43 C1          21.4230    26.4380    34.8280 C.3        3 MGO       0.304529
     44 H1          21.0330    27.4660    34.9570 H          3 MGO       0.090782
     45 O1          20.3450    25.4870    34.5260 O.3        3 MGO      -0.453070
     46 C2          22.4090    26.4470    33.6630 C.3        3 MGO       0.092199
     47 H2          23.1880    27.1910    33.8470 H          3 MGO       0.102926
     48 O2          21.7170    26.7640    32.4450 O.3        3 MGO      -0.586639
     49 HO2         20.7620    26.6330    32.5600 H          3 MGO       0.425065
     50 C3          23.0300    25.0780    33.4750 C.3        3 MGO       0.093211
     51 H3          22.2580    24.3620    33.1810 H          3 MGO       0.064468
     52 O3          24.0190    25.2150    32.4420 O.3        3 MGO      -0.592567
     53 HO3         23.6490    25.8280    31.7910 H          3 MGO       0.421017
     54 C4          23.7030    24.6260    34.7620 C.3        3 MGO       0.127621
     55 H4          24.5480    25.2860    34.9730 H          3 MGO       0.080661
     56 C5          22.7210    24.6540    35.9430 C.3        3 MGO       0.104343
     57 H5          21.9110    23.9550    35.7200 H          3 MGO       0.068516
     58 O5          22.1330    26.0160    36.0510 O.3        3 MGO      -0.427383
     59 C6          23.2770    24.2400    37.3130 C.3        3 MGO       0.141081
     60 H61         23.1650    23.1620    37.4460 H          3 MGO       0.057384
     61 H62         22.7210    24.7400    38.1110 H          3 MGO       0.057384
     62 O6          24.6680    24.5720    37.4190 O.3        3 MGO      -0.593555
     63 HO6         25.1820    23.8190    37.0970 H          3 MGO       0.422027
     64 C1          16.1630    25.3740    34.8300 C.3        4 MGO       0.304529
     65 H1          15.1160    25.7100    34.9580 H          4 MGO       0.090782
     66 O1          16.2350    23.9380    34.5270 O.3        4 MGO      -0.453070
     67 C2          16.7710    26.1510    33.6650 C.3        4 MGO       0.092199
     68 H2          16.6750    27.2240    33.8500 H          4 MGO       0.102926
     69 O2          16.0910    25.8080    32.4450 O.3        4 MGO      -0.586639
     70 HO2         15.5970    24.9800    32.5620 H          4 MGO       0.425065
     71 C3          18.2280    25.7840    33.4760 C.3        4 MGO       0.093211
     72 H3          18.3070    24.7340    33.1810 H          4 MGO       0.064468
     73 O3          18.7380    26.6420    32.4430 O.3        4 MGO      -0.592567
     74 HO3         18.0280    26.7350    31.7930 H          4 MGO       0.421017
     75 C4          19.0020    26.0260    34.7610 C.3        4 MGO       0.127621
     76 H4          19.0130    27.0980    34.9740 H          4 MGO       0.080661
     77 C5          18.3680    25.2760    35.9430 C.3        4 MGO       0.104343
     78 H5          18.4090    24.2070    35.7210 H          4 MGO       0.068516
     79 O5          16.9370    25.6660    36.0520 O.3        4 MGO      -0.427383
     80 C6          19.0380    25.4540    37.3130 C.3        4 MGO       0.141081
     81 H61         19.8120    24.6930    37.4460 H          4 MGO       0.057384
     82 H62         18.3010    25.3290    38.1110 H          4 MGO       0.057384
     83 O6          19.6470    26.7460    37.4190 O.3        4 MGO      -0.593555
     84 HO6         20.5550    26.6800    37.0970 H          4 MGO       0.422027
     85 C1          13.7160    20.6000    34.8300 C.3        5 MGO       0.304529
     86 H1          12.8000    19.9900    34.9590 H          5 MGO       0.090782
     87 O1          14.8820    19.7600    34.5270 O.3        5 MGO      -0.453070
     88 C2          13.4870    21.5590    33.6650 C.3        5 MGO       0.092199
     89 H2          12.5880    22.1530    33.8510 H          5 MGO       0.102926
     90 O2          13.3310    20.8140    32.4470 O.3        5 MGO      -0.586639
     91 HO2         13.6710    19.9120    32.5620 H          5 MGO       0.425065
     92 C3          14.6830    22.4700    33.4770 C.3        5 MGO       0.093211
     93 H3          15.5530    21.8760    33.1820 H          5 MGO       0.064468
     94 O3          14.3290    23.4030    32.4440 O.3        5 MGO      -0.592567
     95 HO3         13.8140    22.9060    31.7930 H          5 MGO       0.421017
     96 C4          14.9750    23.2250    34.7630 C.3        5 MGO       0.127621
     97 H4          14.1440    23.9030    34.9760 H          5 MGO       0.080661
     98 C5          15.1680    22.2610    35.9440 C.3        5 MGO       0.104343
     99 H5          16.0280    21.6270    35.7210 H          5 MGO       0.068516
    100 O5          13.9690    21.3860    36.0530 O.3        5 MGO      -0.427383
    101 C6          15.4470    22.8950    37.3140 C.3        5 MGO       0.141081
    102 H61         16.5230    23.0260    37.4460 H          5 MGO       0.057384
    103 H62         15.0850    22.2420    38.1120 H          5 MGO       0.057384
    104 O6          14.8150    24.1780    37.4200 O.3        5 MGO      -0.593555
    105 HO6         15.4340    24.8460    37.0980 H          5 MGO       0.422027
    106 C1          15.9230    15.7090    34.8290 C.3        6 MGO       0.304529
    107 H1          15.8280    14.6120    34.9570 H          6 MGO       0.090782
    108 O1          17.3070    16.0970    34.5260 O.3        6 MGO      -0.453070
    109 C2          15.0300    16.1280    33.6640 C.3        6 MGO       0.092199
    110 H2          14.0050    15.7960    33.8490 H          6 MGO       0.102926
    111 O2          15.5160    15.5420    32.4450 O.3        6 MGO      -0.586639
    112 HO2         16.4330    15.2450    32.5600 H          6 MGO       0.425065
    113 C3          15.0640    17.6310    33.4760 C.3        6 MGO       0.093211
    114 H3          16.0700    17.9400    33.1810 H          6 MGO       0.064468
    115 O3          14.1140    17.9370    32.4430 O.3        6 MGO      -0.592567
    116 HO3         14.1810    17.2240    31.7920 H          6 MGO       0.421017
    117 C4          14.6550    18.3300    34.7630 C.3        6 MGO       0.127621
    118 H4          13.6080    18.1030    34.9740 H          6 MGO       0.080661
    119 C5          15.5280    17.8790    35.9430 C.3        6 MGO       0.104343
    120 H5          16.5600    18.1570    35.7210 H          6 MGO       0.068516
    121 O5          15.4660    16.3960    36.0520 O.3        6 MGO      -0.427383
    122 C6          15.2060    18.4920    37.3130 C.3        6 MGO       0.141081
    123 H61         15.7750    19.4150    37.4460 H          6 MGO       0.057384
    124 H62         15.4910    17.8010    38.1110 H          6 MGO       0.057384
    125 O6          13.8090    18.7980    37.4190 O.3        6 MGO      -0.593555
    126 HO6         13.6730    19.6990    37.0990 H          6 MGO       0.422027
    127 C1          21.1230    14.3850    34.8290 C.3        7 MGO       0.304529
    128 H1          21.9210    13.6280    34.9570 H          7 MGO       0.090782
    129 O1          21.6810    15.7090    34.5260 O.3        7 MGO      -0.453070
    130 C2          20.2390    13.9480    33.6630 C.3        7 MGO       0.092199
    131 H2          19.8590    12.9390    33.8490 H          7 MGO       0.102926
    132 O2          21.0000    13.9630    32.4450 O.3        7 MGO      -0.586639
    133 HO2         21.8030    14.4950    32.5610 H          7 MGO       0.425065
    134 C3          19.0850    14.9110    33.4760 C.3        7 MGO       0.093211
    135 H3          19.4700    15.8920    33.1800 H          7 MGO       0.064468
    136 O3          18.2530    14.3600    32.4420 O.3        7 MGO      -0.592567
    137 HO3         18.8520    13.9690    31.7920 H          7 MGO       0.421017
    138 C4          18.2820    15.0290    34.7620 C.3        7 MGO       0.127621
    139 H4          17.8070    14.0670    34.9740 H          7 MGO       0.080661
    140 C5          19.1790    15.4290    35.9440 C.3        7 MGO       0.104343
    141 H5          19.6060    16.4100    35.7200 H          7 MGO       0.068516
    142 O5          20.2990    14.4570    36.0510 O.3        7 MGO      -0.427383
    143 C6          18.4990    15.5600    37.3140 C.3        7 MGO       0.141081
    144 H61         18.1320    16.5800    37.4470 H          7 MGO       0.057384
    145 H62         19.2160    15.3520    38.1100 H          7 MGO       0.057384
    146 O6          17.3890    14.6580    37.4190 O.3        7 MGO      -0.593555
    147 HO6         16.6000    15.1130    37.0970 H          7 MGO       0.422027
@<TRIPOS>BOND
     1    17    20 1   
     2    14    16 1   
     3    14    17 1   
     4    12    14 1   
     5    12   129 1   
     6     8    10 1   
     7     8    12 1   
     8     4     6 1   
     9     4     8 1   
    10     3    33 1   
    11     1     3 1   
    12     1     4 1   
    13     1    16 1   
    14    38    41 1   
    15    35    37 1   
    16    35    38 1   
    17    33    35 1   
    18    29    31 1   
    19    29    33 1   
    20    25    27 1   
    21    25    29 1   
    22    24    54 1   
    23    22    24 1   
    24    22    25 1   
    25    22    37 1   
    26    59    62 1   
    27    56    58 1   
    28    56    59 1   
    29    54    56 1   
    30    50    52 1   
    31    50    54 1   
    32    46    48 1   
    33    46    50 1   
    34    45    75 1   
    35    43    45 1   
    36    43    46 1   
    37    43    58 1   
    38    80    83 1   
    39    77    79 1   
    40    77    80 1   
    41    75    77 1   
    42    71    73 1   
    43    71    75 1   
    44    67    69 1   
    45    67    71 1   
    46    66    96 1   
    47    64    66 1   
    48    64    67 1   
    49    64    79 1   
    50   101   104 1   
    51    98   100 1   
    52    98   101 1   
    53    96    98 1   
    54    92    94 1   
    55    92    96 1   
    56    88    90 1   
    57    88    92 1   
    58    87   117 1   
    59    85    87 1   
    60    85    88 1   
    61    85   100 1   
    62   122   125 1   
    63   119   121 1   
    64   119   122 1   
    65   117   119 1   
    66   113   115 1   
    67   113   117 1   
    68   109   111 1   
    69   109   113 1   
    70   108   138 1   
    71   106   108 1   
    72   106   109 1   
    73   106   121 1   
    74   143   146 1   
    75   140   142 1   
    76   140   143 1   
    77   138   140 1   
    78   134   136 1   
    79   134   138 1   
    80   130   132 1   
    81   130   134 1   
    82   127   129 1   
    83   127   130 1   
    84   127   142 1   
    85    20    21 1   
    86    17    18 1   
    87    17    19 1   
    88    14    15 1   
    89    12    13 1   
    90    10    11 1   
    91     8     9 1   
    92     6     7 1   
    93     4     5 1   
    94     1     2 1   
    95    41    42 1   
    96    38    39 1   
    97    38    40 1   
    98    35    36 1   
    99    33    34 1   
   100    31    32 1   
   101    29    30 1   
   102    27    28 1   
   103    25    26 1   
   104    22    23 1   
   105    62    63 1   
   106    59    60 1   
   107    59    61 1   
   108    56    57 1   
   109    54    55 1   
   110    52    53 1   
   111    50    51 1   
   112    48    49 1   
   113    46    47 1   
   114    43    44 1   
   115    83    84 1   
   116    80    81 1   
   117    80    82 1   
   118    77    78 1   
   119    75    76 1   
   120    73    74 1   
   121    71    72 1   
   122    69    70 1   
   123    67    68 1   
   124    64    65 1   
   125   104   105 1   
   126   101   102 1   
   127   101   103 1   
   128    98    99 1   
   129    96    97 1   
   130    94    95 1   
   131    92    93 1   
   132    90    91 1   
   133    88    89 1   
   134    85    86 1   
   135   125   126 1   
   136   122   123 1   
   137   122   124 1   
   138   119   120 1   
   139   117   118 1   
   140   115   116 1   
   141   113   114 1   
   142   111   112 1   
   143   109   110 1   
   144   106   107 1   
   145   146   147 1   
   146   143   144 1   
   147   143   145 1   
   148   140   141 1   
   149   138   139 1   
   150   136   137 1   
   151   134   135 1   
   152   132   133 1   
   153   130   131 1   
   154   127   128 1   
@<TRIPOS>SUBSTRUCTURE
     1 MGO         1 TEMP              0 ****  ****    0 ROOT
