@<TRIPOS>MOLECULE
Cpptraj
   20    20     1     0     0
SMALL
No Charge or Current Charge


@<TRIPOS>ATOM
      1 C1          18.7960    20.4500    38.8360 C.2        1 MP4       0.923048
      2 O1          18.2760    21.5310    39.0600 O.co2      1 MP4      -0.835894
      3 O2          18.2000    19.4090    39.0600 O.co2      1 MP4      -0.835894
      4 C2          20.2190    20.3980    38.2850 C.3        1 MP4      -0.182012
      5 H1          20.7350    19.5050    38.6530 H          1 MP4       0.034717
      6 H2          20.7970    21.2530    38.6530 H          1 MP4       0.034717
      7 C3          20.2150    20.3980    36.7650 C.ar       1 MP4      -0.001299
      8 C4          20.1740    19.1940    36.0590 C.ar       1 MP4      -0.136434
      9 H3          20.1380    18.2490    36.5990 H          1 MP4       0.137567
     10 C5          20.1760    19.1950    34.6630 C.ar       1 MP4      -0.133935
     11 H4          20.1390    18.2510    34.1220 H          1 MP4       0.107052
     12 C6          20.2220    20.3980    33.9590 C.ar       1 MP4      -0.128238
     13 C7          20.2630    21.6010    34.6630 C.ar       1 MP4      -0.133935
     14 H5          20.2950    22.5450    34.1210 H          1 MP4       0.107052
     15 C8          20.2610    21.6030    36.0580 C.ar       1 MP4      -0.136434
     16 H6          20.2930    22.5480    36.5990 H          1 MP4       0.137567
     17 C9          20.2190    20.3980    32.4430 C.3        1 MP4      -0.033784
     18 H7          20.7600    21.2620    32.0530 H          1 MP4       0.025379
     19 H8          20.6970    19.4960    32.0540 H          1 MP4       0.025379
     20 H9          19.1940    20.4350    32.0680 H          1 MP4       0.025381
@<TRIPOS>BOND
     1    13    15 ar  
     2    12    13 ar  
     3    12    17 1   
     4    10    12 ar  
     5     8    10 ar  
     6     7     8 ar  
     7     7    15 ar  
     8     4     7 1   
     9     1     2 1   
    10     1     3 1   
    11     1     4 1   
    12    17    18 1   
    13    17    19 1   
    14    17    20 1   
    15    15    16 1   
    16    13    14 1   
    17    10    11 1   
    18     8     9 1   
    19     4     5 1   
    20     4     6 1   
@<TRIPOS>SUBSTRUCTURE
     1 MP4         1 TEMP              0 ****  ****    0 ROOT
