@<TRIPOS>MOLECULE
Cpptraj generated mol2 file.
   16    16     1     0     0
SMALL
USER_CHARGES


@<TRIPOS>ATOM
      1 C1         20.3020   19.9640   33.3420 c3         1 CPE     -0.076981
      2 H2         19.4880   20.3070   32.6990 hc         1 CPE      0.042405
      3 H3         21.2390   20.0130   32.7820 hc         1 CPE      0.042405
      4 C2         20.0770   18.5350   33.8490 c3         1 CPE     -0.076981
      5 H4         19.0250   18.4010   34.1080 hc         1 CPE      0.042405
      6 H5         20.3550   17.7870   33.1040 hc         1 CPE      0.042405
      7 C3         20.9390   18.4390   35.1160 c3         1 CPE     -0.097503
      8 H6         21.9420   18.0970   34.8490 hc         1 CPE      0.052145
      9 H7         20.5170   17.7280   35.8320 hc         1 CPE      0.052145
     10 C4         21.0330   19.8700   35.6840 c3         1 CPE      0.139952
     11 H8         22.0830   20.1260   35.8570 h1         1 CPE      0.032666
     12 C5         20.4220   20.8070   34.6220 c3         1 CPE     -0.097503
     13 H9         19.4260   21.1380   34.9290 hc         1 CPE      0.052145
     14 H10        21.0450   21.6870   34.4580 hc         1 CPE      0.052145
     15 O1         20.3020   19.9640   36.9130 oh         1 CPE     -0.599431
     16 H1         20.4720   20.8790   37.2780 ho         1 CPE      0.397581
@<TRIPOS>BOND
    1    10    12 1
    2    10    15 1
    3     7    10 1
    4     4     7 1
    5     1     4 1
    6     1    12 1
    7    15    16 1
    8    12    13 1
    9    12    14 1
   10    10    11 1
   11     7     8 1
   12     7     9 1
   13     4     5 1
   14     4     6 1
   15     1     2 1
   16     1     3 1
@<TRIPOS>SUBSTRUCTURE
      1 CPE               1 ****               0 ****  **** 
