@<TRIPOS>MOLECULE
Cpptraj
  147   154     1     0     0
SMALL
No Charge or Current Charge


@<TRIPOS>ATOM
      1 C1          15.5820    16.0160    34.1920 C.3        1 MGO       0.304529
      2 H1          14.4880    15.8950    34.0580 H          1 MGO       0.090782
      3 O1          15.9320    17.4070    34.5080 O.3        1 MGO      -0.453070
      4 C2          16.0170    15.1240    35.3520 C.3        1 MGO       0.092199
      5 H2          15.7120    14.0930    35.1580 H          1 MGO       0.102926
      6 O2          15.4130    15.5860    36.5720 O.3        1 MGO      -0.586639
      7 HO2         15.0950    16.4960    36.4620 H          1 MGO       0.425065
      8 C3          17.5180    15.1950    35.5480 C.3        1 MGO       0.093211
      9 H3          17.8010    16.2070    35.8520 H          1 MGO       0.064468
     10 O3          17.8440    14.2450    36.5750 O.3        1 MGO      -0.592567
     11 HO3         17.1270    14.2890    37.2220 H          1 MGO       0.421017
     12 C4          18.2340    14.8150    34.2610 C.3        1 MGO       0.127621
     13 H4          18.0340    13.7630    34.0400 H          1 MGO       0.080661
     14 C5          17.7660    15.6860    33.0850 C.3        1 MGO       0.104343
     15 H5          18.0160    16.7230    33.3160 H          1 MGO       0.068516
     16 O5          16.2860    15.5860    32.9700 O.3        1 MGO      -0.427383
     17 C6          18.3940    15.3900    31.7150 C.3        1 MGO       0.141081
     18 H61         19.3020    15.9840    31.5910 H          1 MGO       0.057384
     19 H62         17.6990    15.6640    30.9170 H          1 MGO       0.057384
     20 O6          18.7350    14.0030    31.5990 O.3        1 MGO      -0.593555
     21 HO6         19.6380    13.8880    31.9240 H          1 MGO       0.422027
     22 C1          14.1250    21.1790    34.2280 C.3        2 MGO       0.304529
     23 H1          13.3470    21.9590    34.1030 H          2 MGO       0.090782
     24 O1          15.4320    21.7700    34.5410 O.3        2 MGO      -0.453070
     25 C2          13.7060    20.2750    35.3840 C.3        2 MGO       0.092199
     26 H2          12.7070    19.8720    35.1920 H          2 MGO       0.102926
     27 O2          13.6960    21.0260    36.6080 O.3        2 MGO      -0.586639
     28 HO2         14.2070    21.8440    36.5020 H          2 MGO       0.425065
     29 C3          14.6980    19.1450    35.5660 C.3        2 MGO       0.093211
     30 H3          15.6670    19.5520    35.8700 H          2 MGO       0.064468
     31 O3          14.1620    18.2910    36.5900 O.3        2 MGO      -0.592567
     32 HO3         13.7520    18.8750    37.2450 H          2 MGO       0.421017
     33 C4          14.8400    18.3560    34.2760 C.3        2 MGO       0.127621
     34 H4          13.8920    17.8580    34.0550 H          2 MGO       0.080661
     35 C5          15.2230    19.2730    33.1030 C.3        2 MGO       0.104343
     36 H5          16.1910    19.7220    33.3330 H          2 MGO       0.068516
     37 O5          14.2230    20.3690    32.9990 O.3        2 MGO      -0.427383
     38 C6          15.3780    18.6070    31.7280 C.3        2 MGO       0.141081
     39 H61         16.4070    18.2680    31.5960 H          2 MGO       0.057384
     40 H62         15.1540    19.3250    30.9360 H          2 MGO       0.057384
     41 O6          14.5050    17.4760    31.6090 O.3        2 MGO      -0.593555
     42 HO6         14.9790    16.6960    31.9270 H          2 MGO       0.422027
     43 C1          17.2530    25.5380    34.2770 C.3        3 MGO       0.304529
     44 H1          17.3780    26.6320    34.1570 H          3 MGO       0.090782
     45 O1          18.5330    24.8810    34.5790 O.3        3 MGO      -0.453070
     46 C2          16.2910    25.2940    35.4350 C.3        3 MGO       0.092199
     47 H2          15.3530    25.8240    35.2510 H          3 MGO       0.102926
     48 O2          16.8780    25.7620    36.6600 O.3        3 MGO      -0.586639
     49 HO2         17.8370    25.8730    36.5490 H          3 MGO       0.425065
     50 C3          16.0270    23.8130    35.6100 C.3        3 MGO       0.093211
     51 H3          16.9510    23.3080    35.9050 H          3 MGO       0.064468
     52 O3          15.0310    23.6920    36.6380 O.3        3 MGO      -0.592567
     53 HO3         15.2360    24.3720    37.2960 H          3 MGO       0.421017
     54 C4          15.4920    23.2180    34.3170 C.3        3 MGO       0.127621
     55 H4          14.5120    23.6500    34.1050 H          3 MGO       0.080661
     56 C5          16.4410    23.4980    33.1420 C.3        3 MGO       0.104343
     57 H5          17.3980    23.0190    33.3640 H          3 MGO       0.068516
     58 O5          16.6750    24.9640    33.0470 O.3        3 MGO      -0.427383
     59 C6          16.0110    22.9700    31.7660 C.3        3 MGO       0.141081
     60 H61         16.3880    21.9550    31.6270 H          3 MGO       0.057384
     61 H62         16.4300    23.5980    30.9750 H          3 MGO       0.057384
     62 O6          14.5820    22.9480    31.6540 O.3        3 MGO      -0.593555
     63 HO6         14.2690    22.0890    31.9670 H          3 MGO       0.422027
     64 C1          22.6140    25.8080    34.2990 C.3        4 MGO       0.304529
     65 H1          23.5450    26.3940    34.1800 H          4 MGO       0.090782
     66 O1          22.8970    24.3970    34.5920 O.3        4 MGO      -0.453070
     67 C2          21.8270    26.4020    35.4660 C.3        4 MGO       0.092199
     68 H2          21.6560    27.4660    35.2880 H          4 MGO       0.102926
     69 O2          22.5660    26.2280    36.6860 O.3        4 MGO      -0.586639
     70 HO2         23.2500    25.5480    36.5680 H          4 MGO       0.425065
     71 C3          20.5060    25.6840    35.6420 C.3        4 MGO       0.093211
     72 H3          20.6880    24.6450    35.9310 H          4 MGO       0.064468
     73 O3          19.7950    26.3820    36.6780 O.3        4 MGO      -0.592567
     74 HO3         20.4580    26.6420    37.3340 H          4 MGO       0.421017
     75 C4          19.7010    25.7370    34.3540 C.3        4 MGO       0.127621
     76 H4          19.4260    26.7760    34.1500 H          4 MGO       0.080661
     77 C5          20.5050    25.1770    33.1720 C.3        4 MGO       0.104343
     78 H5          20.7300    24.1290    33.3870 H          4 MGO       0.068516
     79 O5          21.7960    25.9090    33.0750 O.3        4 MGO      -0.427383
     80 C6          19.8180    25.1940    31.7990 C.3        4 MGO       0.141081
     81 H61         19.2580    24.2670    31.6570 H          4 MGO       0.057384
     82 H62         20.5670    25.2620    31.0050 H          4 MGO       0.057384
     83 O6          18.9090    26.2970    31.6990 O.3        4 MGO      -0.593555
     84 HO6         18.0440    26.0050    32.0150 H          4 MGO       0.422027
     85 C1          26.1650    21.7880    34.2820 C.3        5 MGO       0.304529
     86 H1          27.2040    21.4250    34.1540 H          5 MGO       0.090782
     87 O1          25.2420    20.6830    34.5730 O.3        5 MGO      -0.453070
     88 C2          26.1450    22.7650    35.4540 C.3        5 MGO       0.092199
     89 H2          26.8710    23.5640    35.2780 H          5 MGO       0.102926
     90 O2          26.4750    22.0720    36.6690 O.3        5 MGO      -0.586639
     91 HO2         26.3690    21.1140    36.5460 H          5 MGO       0.425065
     92 C3          24.7610    23.3490    35.6420 C.3        5 MGO       0.093211
     93 H3          24.0630    22.5570    35.9280 H          5 MGO       0.064468
     94 O3          24.8670    24.3330    36.6830 O.3        5 MGO      -0.592567
     95 HO3         25.4870    23.9740    37.3340 H          5 MGO       0.421017
     96 C4          24.2950    24.0200    34.3590 C.3        5 MGO       0.127621
     97 H4          24.9340    24.8830    34.1560 H          5 MGO       0.080661
     98 C5          24.3530    23.0480    33.1710 C.3        5 MGO       0.104343
     99 H5          23.6750    22.2190    33.3840 H          5 MGO       0.068516
    100 O5          25.7310    22.4960    33.0630 O.3        5 MGO      -0.427383
    101 C6          23.9310    23.6030    31.8020 C.3        5 MGO       0.141081
    102 H61         22.8560    23.4650    31.6650 H          5 MGO       0.057384
    103 H62         24.4460    23.0670    31.0030 H          5 MGO       0.057384
    104 O6          24.2260    25.0040    31.7090 O.3        5 MGO      -0.593555
    105 HO6         23.4600    25.4960    32.0320 H          5 MGO       0.422027
    106 C1          25.2370    16.5030    34.2370 C.3        6 MGO       0.304529
    107 H1          25.6010    15.4660    34.1030 H          6 MGO       0.090782
    108 O1          23.7990    16.5350    34.5350 O.3        6 MGO      -0.453070
    109 C2          25.9930    17.1210    35.4110 C.3        6 MGO       0.092199
    110 H2          27.0700    17.0550    35.2300 H          6 MGO       0.102926
    111 O2          25.6630    16.4230    36.6220 O.3        6 MGO      -0.586639
    112 HO2         24.8480    15.9090    36.4990 H          6 MGO       0.425065
    113 C3          25.5880    18.5670    35.6080 C.3        6 MGO       0.093211
    114 H3          24.5350    18.6160    35.8990 H          6 MGO       0.064468
    115 O3          26.4290    19.0900    36.6490 O.3        6 MGO      -0.592567
    116 HO3         26.5370    18.3780    37.2950 H          6 MGO       0.421017
    117 C4          25.8170    19.3560    34.3280 C.3        6 MGO       0.127621
    118 H4          26.8890    19.3960    34.1210 H          6 MGO       0.080661
    119 C5          25.0870    18.7120    33.1400 C.3        6 MGO       0.104343
    120 H5          24.0180    18.7240    33.3570 H          6 MGO       0.068516
    121 O5          25.5150    17.2910    33.0220 O.3        6 MGO      -0.427383
    122 C6          25.2530    19.3960    31.7750 C.3        6 MGO       0.141081
    123 H61         24.4750    20.1510    31.6460 H          6 MGO       0.057384
    124 H62         25.1520    18.6630    30.9720 H          6 MGO       0.057384
    125 O6          26.5320    20.0400    31.6800 O.3        6 MGO      -0.593555
    126 HO6         26.4390    20.9440    32.0080 H          6 MGO       0.422027
    127 C1          20.5260    13.9350    34.1970 C.3        7 MGO       0.304529
    128 H1          19.9400    13.0040    34.0600 H          7 MGO       0.090782
    129 O1          19.6570    15.0760    34.5060 O.3        7 MGO      -0.453070
    130 C2          21.4860    13.7200    35.3650 C.3        7 MGO       0.092199
    131 H2          22.1040    12.8390    35.1750 H          7 MGO       0.102926
    132 O2          20.7400    13.5370    36.5780 O.3        7 MGO      -0.586639
    133 HO2         19.8290    13.8550    36.4620 H          7 MGO       0.425065
    134 C3          22.3650    14.9380    35.5660 C.3        7 MGO       0.093211
    135 H3          21.7480    15.7900    35.8650 H          7 MGO       0.064468
    136 O3          23.3030    14.6010    36.6010 O.3        7 MGO      -0.592567
    137 HO3         22.8160    14.0680    37.2450 H          7 MGO       0.421017
    138 C4          23.1190    15.2600    34.2860 C.3        7 MGO       0.127621
    139 H4          23.8180    14.4480    34.0700 H          7 MGO       0.080661
    140 C5          22.1560    15.4350    33.1010 C.3        7 MGO       0.104343
    141 H5          21.4990    16.2790    33.3280 H          7 MGO       0.068516
    142 O5          21.3110    14.2170    32.9810 O.3        7 MGO      -0.427383
    143 C6          22.7880    15.7410    31.7360 C.3        7 MGO       0.141081
    144 H61         22.8920    16.8220    31.6120 H          7 MGO       0.057384
    145 H62         22.1480    15.3690    30.9330 H          7 MGO       0.057384
    146 O6          24.0870    15.1430    31.6320 O.3        7 MGO      -0.593555
    147 HO6         24.7380    15.7760    31.9620 H          7 MGO       0.422027
@<TRIPOS>BOND
     1    17    20 1   
     2    14    16 1   
     3    14    17 1   
     4    12    14 1   
     5    12   129 1   
     6     8    10 1   
     7     8    12 1   
     8     4     6 1   
     9     4     8 1   
    10     3    33 1   
    11     1     3 1   
    12     1     4 1   
    13     1    16 1   
    14    38    41 1   
    15    35    37 1   
    16    35    38 1   
    17    33    35 1   
    18    29    31 1   
    19    29    33 1   
    20    25    27 1   
    21    25    29 1   
    22    24    54 1   
    23    22    24 1   
    24    22    25 1   
    25    22    37 1   
    26    59    62 1   
    27    56    58 1   
    28    56    59 1   
    29    54    56 1   
    30    50    52 1   
    31    50    54 1   
    32    46    48 1   
    33    46    50 1   
    34    45    75 1   
    35    43    45 1   
    36    43    46 1   
    37    43    58 1   
    38    80    83 1   
    39    77    79 1   
    40    77    80 1   
    41    75    77 1   
    42    71    73 1   
    43    71    75 1   
    44    67    69 1   
    45    67    71 1   
    46    66    96 1   
    47    64    66 1   
    48    64    67 1   
    49    64    79 1   
    50   101   104 1   
    51    98   100 1   
    52    98   101 1   
    53    96    98 1   
    54    92    94 1   
    55    92    96 1   
    56    88    90 1   
    57    88    92 1   
    58    87   117 1   
    59    85    87 1   
    60    85    88 1   
    61    85   100 1   
    62   122   125 1   
    63   119   121 1   
    64   119   122 1   
    65   117   119 1   
    66   113   115 1   
    67   113   117 1   
    68   109   111 1   
    69   109   113 1   
    70   108   138 1   
    71   106   108 1   
    72   106   109 1   
    73   106   121 1   
    74   143   146 1   
    75   140   142 1   
    76   140   143 1   
    77   138   140 1   
    78   134   136 1   
    79   134   138 1   
    80   130   132 1   
    81   130   134 1   
    82   127   129 1   
    83   127   130 1   
    84   127   142 1   
    85    20    21 1   
    86    17    18 1   
    87    17    19 1   
    88    14    15 1   
    89    12    13 1   
    90    10    11 1   
    91     8     9 1   
    92     6     7 1   
    93     4     5 1   
    94     1     2 1   
    95    41    42 1   
    96    38    39 1   
    97    38    40 1   
    98    35    36 1   
    99    33    34 1   
   100    31    32 1   
   101    29    30 1   
   102    27    28 1   
   103    25    26 1   
   104    22    23 1   
   105    62    63 1   
   106    59    60 1   
   107    59    61 1   
   108    56    57 1   
   109    54    55 1   
   110    52    53 1   
   111    50    51 1   
   112    48    49 1   
   113    46    47 1   
   114    43    44 1   
   115    83    84 1   
   116    80    81 1   
   117    80    82 1   
   118    77    78 1   
   119    75    76 1   
   120    73    74 1   
   121    71    72 1   
   122    69    70 1   
   123    67    68 1   
   124    64    65 1   
   125   104   105 1   
   126   101   102 1   
   127   101   103 1   
   128    98    99 1   
   129    96    97 1   
   130    94    95 1   
   131    92    93 1   
   132    90    91 1   
   133    88    89 1   
   134    85    86 1   
   135   125   126 1   
   136   122   123 1   
   137   122   124 1   
   138   119   120 1   
   139   117   118 1   
   140   115   116 1   
   141   113   114 1   
   142   111   112 1   
   143   109   110 1   
   144   106   107 1   
   145   146   147 1   
   146   143   144 1   
   147   143   145 1   
   148   140   141 1   
   149   138   139 1   
   150   136   137 1   
   151   134   135 1   
   152   132   133 1   
   153   130   131 1   
   154   127   128 1   
@<TRIPOS>SUBSTRUCTURE
     1 MGO         1 TEMP              0 ****  ****    0 ROOT
