@<TRIPOS>MOLECULE
Cpptraj
   19    18     1     0     0
SMALL
No Charge or Current Charge


@<TRIPOS>ATOM
      1 C1          18.7260    19.6120    38.4500 C.2        1 HEX       0.907600
      2 O1          18.8600    18.9950    39.4940 O.co2      1 HEX      -0.853800
      3 O2          18.4680    20.8050    38.4770 O.co2      1 HEX      -0.853800
      4 C2          18.8890    18.8590    37.1250 C.3        1 HEX      -0.193400
      5 H1          18.1680    18.0350    37.0870 H          1 HEX       0.018700
      6 H2          19.8870    18.4070    37.0870 H          1 HEX       0.018700
      7 C3          18.6970    19.7460    35.8740 C.3        1 HEX      -0.065400
      8 H3          17.6980    20.1870    35.8860 H          1 HEX       0.043200
      9 H4          19.4260    20.5610    35.8860 H          1 HEX       0.043200
     10 C4          18.8750    18.9270    34.5770 C.3        1 HEX      -0.078400
     11 H5          18.1490    18.1090    34.5590 H          1 HEX       0.025700
     12 H6          19.8730    18.4830    34.5590 H          1 HEX       0.025700
     13 C5          18.6840    19.8100    33.3260 C.3        1 HEX      -0.081400
     14 H7          17.6850    20.2550    33.3380 H          1 HEX       0.034700
     15 H8          19.4090    20.6280    33.3380 H          1 HEX       0.034700
     16 C6          18.8600    18.9950    32.0320 C.3        1 HEX      -0.088100
     17 H9          18.1270    18.1860    31.9820 H          1 HEX       0.020700
     18 H10         18.7210    19.6370    31.1600 H          1 HEX       0.020700
     19 H11         19.8610    18.5620    31.9820 H          1 HEX       0.020700
@<TRIPOS>BOND
     1    13    16 1   
     2    10    13 1   
     3     7    10 1   
     4     4     7 1   
     5     1     2 1   
     6     1     3 1   
     7     1     4 1   
     8    16    17 1   
     9    16    18 1   
    10    16    19 1   
    11    13    14 1   
    12    13    15 1   
    13    10    11 1   
    14    10    12 1   
    15     7     8 1   
    16     7     9 1   
    17     4     5 1   
    18     4     6 1   
@<TRIPOS>SUBSTRUCTURE
     1 HEX         1 TEMP              0 ****  ****    0 ROOT
