@<TRIPOS>MOLECULE
Cpptraj
  126   132     1     0     0
SMALL
No Charge or Current Charge


@<TRIPOS>ATOM
      1 C1          23.5220    17.1470    33.2240 C.3        1 MGO       0.304529
      2 H1          24.6100    17.3260    33.3380 H          1 MGO       0.090782
      3 O1          22.8030    18.3880    32.9130 O.3        1 MGO      -0.453070
      4 C2          23.3100    16.1720    32.0710 C.3        1 MGO       0.092199
      5 H2          23.8590    15.2450    32.2590 H          1 MGO       0.102926
      6 O2          23.7740    16.7760    30.8520 O.3        1 MGO      -0.586639
      7 HO2         23.8200    17.7370    30.9640 H          1 MGO       0.425065
      8 C3          21.8340    15.8830    31.8880 C.3        1 MGO       0.093211
      9 H3          21.3240    16.7990    31.5780 H          1 MGO       0.064468
     10 O3          21.7290    14.8800    30.8660 O.3        1 MGO      -0.592567
     11 HO3         22.4100    15.0820    30.2100 H          1 MGO       0.421017
     12 C4          21.2120    15.3600    33.1750 C.3        1 MGO       0.127621
     13 H4          21.5930    14.3550    33.3740 H          1 MGO       0.080661
     14 C5          21.5090    16.2860    34.3690 C.3        1 MGO       0.104343
     15 H5          21.0170    17.2410    34.1740 H          1 MGO       0.068516
     16 O5          22.9740    16.5380    34.4500 O.3        1 MGO      -0.427383
     17 C6          21.0140    15.8310    35.7500 C.3        1 MGO       0.141081
     18 H61         20.0190    16.2420    35.9370 H          1 MGO       0.057384
     19 H62         21.6840    16.1990    36.5310 H          1 MGO       0.057384
     20 O6          20.9370    14.4010    35.8190 O.3        1 MGO      -0.593555
     21 HO6         20.0560    14.1350    35.5290 H          1 MGO       0.422027
     22 C1          23.1470    22.5050    33.4030 C.3        2 MGO       0.304529
     23 H1          23.5350    23.5300    33.5670 H          2 MGO       0.090782
     24 O1          21.7150    22.5200    33.0780 O.3        2 MGO      -0.453070
     25 C2          23.8960    21.8870    32.2270 C.3        2 MGO       0.092199
     26 H2          24.9720    21.8890    32.4270 H          2 MGO       0.102926
     27 O2          23.6170    22.6450    31.0390 O.3        2 MGO      -0.586639
     28 HO2         22.8070    23.1620    31.1660 H          2 MGO       0.425065
     29 C3          23.4080    20.4750    31.9760 C.3        2 MGO       0.093211
     30 H3          22.3630    20.5060    31.6570 H          2 MGO       0.064468
     31 O3          24.2350    19.9270    30.9360 O.3        2 MGO      -0.592567
     32 HO3         24.4060    20.6480    30.3130 H          2 MGO       0.421017
     33 C4          23.5380    19.6170    33.2270 C.3        2 MGO       0.127621
     34 H4          24.5960    19.4330    33.4280 H          2 MGO       0.080661
     35 C5          22.8740    20.2830    34.4460 C.3        2 MGO       0.104343
     36 H5          21.8030    20.3440    34.2430 H          2 MGO       0.068516
     37 O5          23.3880    21.6720    34.5940 O.3        2 MGO      -0.427383
     38 C6          23.0070    19.5640    35.7970 C.3        2 MGO       0.141081
     39 H61         22.1520    18.9020    35.9470 H          2 MGO       0.057384
     40 H62         23.0160    20.2930    36.6110 H          2 MGO       0.057384
     41 O6          24.2050    18.7800    35.8420 O.3        2 MGO      -0.593555
     42 HO6         23.9980    17.8970    35.5090 H          2 MGO       0.422027
     43 C1          18.3190    24.8560    33.6410 C.3        3 MGO       0.304529
     44 H1          17.6250    25.6960    33.8360 H          3 MGO       0.090782
     45 O1          17.5930    23.6400    33.2540 O.3        3 MGO      -0.453070
     46 C2          19.2410    25.2460    32.4910 C.3        3 MGO       0.092199
     47 H2          19.7760    26.1680    32.7370 H          3 MGO       0.102926
     48 O2          18.4570    25.4390    31.3020 O.3        3 MGO      -0.586639
     49 HO2         17.6030    24.9910    31.4010 H          3 MGO       0.425065
     50 C3          20.2220    24.1300    32.1990 C.3        3 MGO       0.093211
     51 H3          19.6750    23.2550    31.8340 H          3 MGO       0.064468
     52 O3          21.1200    24.6160    31.1870 O.3        3 MGO      -0.592567
     53 HO3         20.5880    25.1540    30.5850 H          3 MGO       0.421017
     54 C4          21.0170    23.7550    33.4410 C.3        3 MGO       0.127621
     55 H4          21.7040    24.5700    33.6870 H          3 MGO       0.080661
     56 C5          20.0960    23.4600    34.6400 C.3        3 MGO       0.104343
     57 H5          19.5100    22.5740    34.3900 H          3 MGO       0.068516
     58 O5          19.1500    24.5920    34.8300 O.3        3 MGO      -0.427383
     59 C6          20.7710    23.1540    35.9840 C.3        3 MGO       0.141081
     60 H61         20.9150    22.0760    36.0870 H          3 MGO       0.057384
     61 H62         20.1370    23.4900    36.8080 H          3 MGO       0.057384
     62 O6          22.0500    23.7960    36.0720 O.3        3 MGO      -0.593555
     63 HO6         22.7120    23.1890    35.7170 H          3 MGO       0.422027
     64 C1          13.8650    21.8480    33.6990 C.3        4 MGO       0.304529
     65 H1          12.7880    21.6590    33.8760 H          4 MGO       0.090782
     66 O1          14.5590    20.6290    33.2640 O.3        4 MGO      -0.453070
     67 C2          14.0000    22.8920    32.5970 C.3        4 MGO       0.092199
     68 H2          13.4670    23.8040    32.8790 H          4 MGO       0.102926
     69 O2          13.4530    22.3640    31.3780 O.3        4 MGO      -0.586639
     70 HO2         13.4130    21.3960    31.4330 H          4 MGO       0.425065
     71 C3          15.4610    23.1940    32.3320 C.3        4 MGO       0.093211
     72 H3          15.9470    22.3000    31.9310 H          4 MGO       0.064468
     73 O3          15.4990    24.2580    31.3680 O.3        4 MGO      -0.592567
     74 HO3         14.7730    24.0960    30.7500 H          4 MGO       0.421017
     75 C4          16.1690    23.6380    33.6030 C.3        4 MGO       0.127621
     76 H4          15.8070    24.6280    33.8900 H          4 MGO       0.080661
     77 C5          15.9530    22.6400    34.7550 C.3        4 MGO       0.104343
     78 H5          16.4290    21.7010    34.4680 H          4 MGO       0.068516
     79 O5          14.4980    22.3800    34.9200 O.3        4 MGO      -0.427383
     80 C6          16.5420    23.0100    36.1240 C.3        4 MGO       0.141081
     81 H61         17.5470    22.5910    36.2180 H          4 MGO       0.057384
     82 H62         15.9270    22.5940    36.9240 H          4 MGO       0.057384
     83 O6          16.6270    24.4320    36.2770 O.3        4 MGO      -0.593555
     84 HO6         17.4870    24.7180    35.9430 H          4 MGO       0.422027
     85 C1          14.2400    16.4890    33.5220 C.3        5 MGO       0.304529
     86 H1          13.8630    15.4550    33.6490 H          5 MGO       0.090782
     87 O1          15.6470    16.4980    33.1000 O.3        5 MGO      -0.453070
     88 C2          13.4140    17.1760    32.4410 C.3        5 MGO       0.092199
     89 H2          12.3550    17.1600    32.7130 H          5 MGO       0.102926
     90 O2          13.6100    16.4940    31.1920 O.3        5 MGO      -0.586639
     91 HO2         14.4260    15.9720    31.2320 H          5 MGO       0.425065
     92 C3          13.8860    18.6030    32.2440 C.3        5 MGO       0.093211
     93 H3          14.9070    18.5940    31.8520 H          5 MGO       0.064468
     94 O3          12.9920    19.2110    31.2980 O.3        5 MGO      -0.592567
     95 HO3         12.7770    18.5310    30.6470 H          5 MGO       0.421017
     96 C4          13.8440    19.3820    33.5520 C.3        5 MGO       0.127621
     97 H4          12.8020    19.5500    33.8350 H          5 MGO       0.080661
     98 C5          14.5880    18.6430    34.6790 C.3        5 MGO       0.104343
     99 H5          15.6430    18.5970    34.4000 H          5 MGO       0.068516
    100 O5          14.0830    17.2480    34.7760 O.3        5 MGO      -0.427383
    101 C6          14.5490    19.2770    36.0770 C.3        5 MGO       0.141081
    102 H61         15.4150    19.9310    36.2090 H          5 MGO       0.057384
    103 H62         14.5950    18.5000    36.8440 H          5 MGO       0.057384
    104 O6          13.3580    20.0540    36.2530 O.3        5 MGO      -0.593555
    105 HO6         13.5450    20.9560    35.9610 H          5 MGO       0.422027
    106 C1          19.0690    14.1380    33.2840 C.3        6 MGO       0.304529
    107 H1          19.7730    13.2880    33.3810 H          6 MGO       0.090782
    108 O1          19.7690    15.3770    32.9240 O.3        6 MGO      -0.453070
    109 C2          18.0690    13.8170    32.1780 C.3        6 MGO       0.092199
    110 H2          17.5500    12.8810    32.4030 H          6 MGO       0.102926
    111 O2          18.7700    13.7000    30.9290 O.3        6 MGO      -0.586639
    112 HO2         19.6300    14.1430    30.9970 H          6 MGO       0.425065
    113 C3          17.0730    14.9480    32.0230 C.3        6 MGO       0.093211
    114 H3          17.5960    15.8440    31.6760 H          6 MGO       0.064468
    115 O3          16.1070    14.5220    31.0480 O.3        6 MGO      -0.592567
    116 HO3         16.5950    14.0240    30.3770 H          6 MGO       0.421017
    117 C4          16.3660    15.2430    33.3380 C.3        6 MGO       0.127621
    118 H4          15.6950    14.4130    33.5790 H          6 MGO       0.080661
    119 C5          17.3670    15.4660    34.4860 C.3        6 MGO       0.104343
    120 H5          17.9370    16.3680    34.2520 H          6 MGO       0.068516
    121 O5          18.3210    14.3260    34.5410 O.3        6 MGO      -0.427383
    122 C6          16.7860    15.6880    35.8900 C.3        6 MGO       0.141081
    123 H61         16.6520    16.7570    36.0690 H          6 MGO       0.057384
    124 H62         17.4740    15.3030    36.6470 H          6 MGO       0.057384
    125 O6          15.5140    15.0380    36.0250 O.3        6 MGO      -0.593555
    126 HO6         14.8300    15.6650    35.7550 H          6 MGO       0.422027
@<TRIPOS>BOND
     1    17    20 1   
     2    14    16 1   
     3    14    17 1   
     4    12    14 1   
     5    12   108 1   
     6     8    10 1   
     7     8    12 1   
     8     4     6 1   
     9     4     8 1   
    10     3    33 1   
    11     1     3 1   
    12     1     4 1   
    13     1    16 1   
    14    38    41 1   
    15    35    37 1   
    16    35    38 1   
    17    33    35 1   
    18    29    31 1   
    19    29    33 1   
    20    25    27 1   
    21    25    29 1   
    22    24    54 1   
    23    22    24 1   
    24    22    25 1   
    25    22    37 1   
    26    59    62 1   
    27    56    58 1   
    28    56    59 1   
    29    54    56 1   
    30    50    52 1   
    31    50    54 1   
    32    46    48 1   
    33    46    50 1   
    34    45    75 1   
    35    43    45 1   
    36    43    46 1   
    37    43    58 1   
    38    80    83 1   
    39    77    79 1   
    40    77    80 1   
    41    75    77 1   
    42    71    73 1   
    43    71    75 1   
    44    67    69 1   
    45    67    71 1   
    46    66    96 1   
    47    64    66 1   
    48    64    67 1   
    49    64    79 1   
    50   101   104 1   
    51    98   100 1   
    52    98   101 1   
    53    96    98 1   
    54    92    94 1   
    55    92    96 1   
    56    88    90 1   
    57    88    92 1   
    58    87   117 1   
    59    85    87 1   
    60    85    88 1   
    61    85   100 1   
    62   122   125 1   
    63   119   121 1   
    64   119   122 1   
    65   117   119 1   
    66   113   115 1   
    67   113   117 1   
    68   109   111 1   
    69   109   113 1   
    70   106   108 1   
    71   106   109 1   
    72   106   121 1   
    73    20    21 1   
    74    17    18 1   
    75    17    19 1   
    76    14    15 1   
    77    12    13 1   
    78    10    11 1   
    79     8     9 1   
    80     6     7 1   
    81     4     5 1   
    82     1     2 1   
    83    41    42 1   
    84    38    39 1   
    85    38    40 1   
    86    35    36 1   
    87    33    34 1   
    88    31    32 1   
    89    29    30 1   
    90    27    28 1   
    91    25    26 1   
    92    22    23 1   
    93    62    63 1   
    94    59    60 1   
    95    59    61 1   
    96    56    57 1   
    97    54    55 1   
    98    52    53 1   
    99    50    51 1   
   100    48    49 1   
   101    46    47 1   
   102    43    44 1   
   103    83    84 1   
   104    80    81 1   
   105    80    82 1   
   106    77    78 1   
   107    75    76 1   
   108    73    74 1   
   109    71    72 1   
   110    69    70 1   
   111    67    68 1   
   112    64    65 1   
   113   104   105 1   
   114   101   102 1   
   115   101   103 1   
   116    98    99 1   
   117    96    97 1   
   118    94    95 1   
   119    92    93 1   
   120    90    91 1   
   121    88    89 1   
   122    85    86 1   
   123   125   126 1   
   124   122   123 1   
   125   122   124 1   
   126   119   120 1   
   127   117   118 1   
   128   115   116 1   
   129   113   114 1   
   130   111   112 1   
   131   109   110 1   
   132   106   107 1   
@<TRIPOS>SUBSTRUCTURE
     1 MGO         1 TEMP              0 ****  ****    0 ROOT
