@<TRIPOS>MOLECULE
HEX
   19    18     1     0     0
SMALL
bcc


@<TRIPOS>ATOM
      1 C1         -0.2520    0.5790    6.4180  c        1 HEX      0.907600
      2 O1          0.0000    0.0000    7.4620  o        1 HEX     -0.853800
      3 O2         -0.7380    1.6980    6.4450  o        1 HEX     -0.853800
      4 C2          0.0560   -0.1280    5.0930 c3        1 HEX     -0.193400
      5 H1         -0.4900   -1.0770    5.0550 hc        1 HEX      0.018700
      6 H2          1.1220   -0.3760    5.0550 hc        1 HEX      0.018700
      7 C3         -0.3070    0.7050    3.8420 c3        1 HEX     -0.065400
      8 H3         -1.3730    0.9410    3.8540 hc        1 HEX      0.043200
      9 H4          0.2480    1.6460    3.8540 hc        1 HEX      0.043200
     10 C4          0.0280   -0.0630    2.5450 c3        1 HEX     -0.078400
     11 H5         -0.5230   -1.0080    2.5270 hc        1 HEX      0.025700
     12 H6          1.0940   -0.3040    2.5270 hc        1 HEX      0.025700
     13 C5         -0.3330    0.7650    1.2940 c3        1 HEX     -0.081400
     14 H7         -1.3990    1.0050    1.3060 hc        1 HEX      0.034700
     15 H8          0.2190    1.7090    1.3060 hc        1 HEX      0.034700
     16 C6          0.0000   -0.0000   -0.0000 c3        1 HEX     -0.088100
     17 H9         -0.5600   -0.9360   -0.0500 hc        1 HEX      0.020700
     18 H10        -0.2620    0.6030   -0.8720 hc        1 HEX      0.020700
     19 H11         1.0670   -0.2290   -0.0500 hc        1 HEX      0.020700
@<TRIPOS>BOND
     1    1    2 1   
     2    1    3 1   
     3    1    4 1   
     4    4    5 1   
     5    4    6 1   
     6    4    7 1   
     7    7    8 1   
     8    7    9 1   
     9    7   10 1   
    10   10   11 1   
    11   10   12 1   
    12   10   13 1   
    13   13   14 1   
    14   13   15 1   
    15   13   16 1   
    16   16   17 1   
    17   16   18 1   
    18   16   19 1   
@<TRIPOS>SUBSTRUCTURE
     1 HEX         1 TEMP              0 ****  ****    0 ROOT
