@<TRIPOS>MOLECULE
BEN
   14    14     1     0     0
SMALL
bcc


@<TRIPOS>ATOM
      1 C1         -0.0000   -0.0000    0.0000 ca        1 BEN     -0.161879
      2 H1         -0.0000   -0.0000   -1.0900 ha        1 BEN      0.097073
      3 C2         -0.9140   -0.7830    0.6980 ca        1 BEN     -0.165876
      4 H2         -1.6310   -1.3980    0.1540 ha        1 BEN      0.101076
      5 C3         -0.9150   -0.7840    2.0920 ca        1 BEN     -0.108918
      6 H3         -1.6370   -1.4030    2.6210 ha        1 BEN      0.148111
      7 C4          0.0000   -0.0000    2.8100 ca        1 BEN     -0.123507
      8 C5          0.9150    0.7840    2.0920 ca        1 BEN     -0.108918
      9 H4          1.6370    1.4030    2.6210 ha        1 BEN      0.148111
     10 C6          0.9140    0.7830    0.6980 ca        1 BEN     -0.165876
     11 H5          1.6310    1.3980    0.1540 ha        1 BEN      0.101076
     12 C7          0.0000   -0.0000    4.3270  c        1 BEN      0.906879
     13 O1          0.8010    0.6860    4.9390  o        1 BEN     -0.833675
     14 O2         -0.8010   -0.6860    4.9390  o        1 BEN     -0.833677
@<TRIPOS>BOND
     1    1    2 1   
     2    1    3 ar  
     3    1   10 ar  
     4    3    4 1   
     5    3    5 ar  
     6    5    6 1   
     7    5    7 ar  
     8    7    8 ar  
     9    7   12 1   
    10    8    9 1   
    11    8   10 ar  
    12   10   11 1   
    13   12   13 1   
    14   12   14 1   
@<TRIPOS>SUBSTRUCTURE
     1 BEN         1 TEMP              0 ****  ****    0 ROOT
