@<TRIPOS>MOLECULE
OCT
   25    24     1     0     0
SMALL
bcc


@<TRIPOS>ATOM
      1 C1          0.0320    0.6230    8.9570  c        1 OCT      0.907358
      2 O1          0.0940    1.8420    8.9720  o        1 OCT     -0.855028
      3 O2          0.0000   -0.0000   10.0040  o        1 OCT     -0.855028
      4 C2         -0.0080   -0.1560    7.6410 c3        1 OCT     -0.193452
      5 H1         -0.9200   -0.7630    7.6080 hc        1 OCT      0.018695
      6 H2          0.8380   -0.8520    7.6080 hc        1 OCT      0.018695
      7 C3          0.0380    0.7420    6.3840 c3        1 OCT     -0.062417
      8 H3         -0.8120    1.4290    6.3910 hc        1 OCT      0.044688
      9 H4          0.9530    1.3400    6.3910 hc        1 OCT      0.044688
     10 C4         -0.0050   -0.1030    5.0930 c3        1 OCT     -0.079421
     11 H5         -0.9190   -0.7030    5.0790 hc        1 OCT      0.024693
     12 H6          0.8430   -0.7930    5.0790 hc        1 OCT      0.024693
     13 C5          0.0400    0.7920    3.8360 c3        1 OCT     -0.078421
     14 H7         -0.8080    1.4810    3.8480 hc        1 OCT      0.036690
     15 H8          0.9540    1.3910    3.8480 hc        1 OCT      0.036690
     16 C6         -0.0030   -0.0540    2.5450 c3        1 OCT     -0.078421
     17 H9         -0.9160   -0.6540    2.5330 hc        1 OCT      0.033691
     18 H10         0.8450   -0.7430    2.5330 hc        1 OCT      0.033691
     19 C7          0.0430    0.8410    1.2890 c3        1 OCT     -0.081422
     20 H11        -0.8050    1.5300    1.2960 hc        1 OCT      0.036690
     21 H12         0.9560    1.4410    1.2960 hc        1 OCT      0.036690
     22 C8         -0.0000   -0.0000    0.0000 c3        1 OCT     -0.090124
     23 H13        -0.9180   -0.5900   -0.0450 hc        1 OCT      0.025360
     24 H14         0.0330    0.6510   -0.8770 hc        1 OCT      0.025360
     25 H15         0.8540   -0.6800   -0.0450 hc        1 OCT      0.025362
@<TRIPOS>BOND
     1    1    2 1   
     2    1    3 1   
     3    1    4 1   
     4    4    5 1   
     5    4    6 1   
     6    4    7 1   
     7    7    8 1   
     8    7    9 1   
     9    7   10 1   
    10   10   11 1   
    11   10   12 1   
    12   10   13 1   
    13   13   14 1   
    14   13   15 1   
    15   13   16 1   
    16   16   17 1   
    17   16   18 1   
    18   16   19 1   
    19   19   20 1   
    20   19   21 1   
    21   19   22 1   
    22   22   23 1   
    23   22   24 1   
    24   22   25 1   
@<TRIPOS>SUBSTRUCTURE
     1 OCT         1 TEMP              0 ****  ****    0 ROOT
