@<TRIPOS>MOLECULE
OAM
   29    28     1     0     0
SMALL
bcc


@<TRIPOS>ATOM
      1 C1          0.0000    0.0000    0.0000 c3        1 OAM     -0.095100
      2 H3         -0.8630   -0.6690   -0.0380 hc        1 OAM      0.038367
      3 H4         -0.0240    0.6410   -0.8840 hc        1 OAM      0.038367
      4 H5          0.9100   -0.6040   -0.0380 hc        1 OAM      0.038367
      5 C2         -0.0320    0.8560    1.2800 c3        1 OAM     -0.079400
      6 H6         -0.9370    1.4680    1.2800 hc        1 OAM      0.041700
      7 H7          0.8260    1.5330    1.2800 hc        1 OAM      0.041700
      8 C3          0.0010   -0.0260    2.5460 c3        1 OAM     -0.079400
      9 H8         -0.8570   -0.7040    2.5400 hc        1 OAM      0.043700
     10 H9          0.9060   -0.6390    2.5400 hc        1 OAM      0.043700
     11 C4         -0.0310    0.8330    3.8270 c3        1 OAM     -0.079400
     12 H10        -0.9360    1.4450    3.8320 hc        1 OAM      0.045700
     13 H11         0.8270    1.5100    3.8320 hc        1 OAM      0.045700
     14 C5          0.0020   -0.0490    5.0930 c3        1 OAM     -0.079400
     15 H12        -0.8560   -0.7270    5.0870 hc        1 OAM      0.049700
     16 H13         0.9070   -0.6620    5.0870 hc        1 OAM      0.049700
     17 C6         -0.0300    0.8090    6.3750 c3        1 OAM     -0.079400
     18 H14        -0.9350    1.4220    6.3800 hc        1 OAM      0.057700
     19 H15         0.8280    1.4870    6.3800 hc        1 OAM      0.057700
     20 C7          0.0030   -0.0720    7.6410 c3        1 OAM     -0.111400
     21 H16        -0.8560   -0.7490    7.6380 hc        1 OAM      0.069700
     22 H17         0.9090   -0.6840    7.6380 hc        1 OAM      0.069700
     23 C8         -0.0290    0.7980    8.9120 c3        1 OAM      0.098800
     24 H18        -0.9390    1.4040    8.9240 hx        1 OAM      0.113700
     25 H19         0.8330    1.4690    8.9240 hx        1 OAM      0.113700
     26 N1         -0.0000    0.0000   10.1960 n4        1 OAM     -0.839600
     27 H1         -0.8080   -0.6380   10.2700 hn        1 OAM      0.461800
     28 H2         -0.0230    0.6140   11.0270 hn        1 OAM      0.461800
     29 HN11        0.8530   -0.5770   10.2700 hn        1 OAM      0.461799
@<TRIPOS>BOND
     1    1    2 1   
     2    1    3 1   
     3    1    4 1   
     4    1    5 1   
     5    5    6 1   
     6    5    7 1   
     7    5    8 1   
     8    8    9 1   
     9    8   10 1   
    10    8   11 1   
    11   11   12 1   
    12   11   13 1   
    13   11   14 1   
    14   14   15 1   
    15   14   16 1   
    16   14   17 1   
    17   17   18 1   
    18   17   19 1   
    19   17   20 1   
    20   20   21 1   
    21   20   22 1   
    22   20   23 1   
    23   23   24 1   
    24   23   25 1   
    25   23   26 1   
    26   26   27 1   
    27   26   28 1   
    28   26   29 1   
@<TRIPOS>SUBSTRUCTURE
     1 OAM         1 TEMP              0 ****  ****    0 ROOT
