@<TRIPOS>MOLECULE
CPE
   16    16     1     0     0
SMALL
bcc


@<TRIPOS>ATOM
      1 C1          0.0000    0.0000    0.0000 c3        1 CPE     -0.076981
      2 H2         -0.7000    0.5380   -0.6430 hc        1 CPE      0.042405
      3 H3          0.9180   -0.1920   -0.5600 hc        1 CPE      0.042405
      4 C2         -0.5800   -1.3250    0.5070 c3        1 CPE     -0.076981
      5 H4         -1.6330   -1.1890    0.7670 hc        1 CPE      0.042405
      6 H5         -0.5030   -2.1200   -0.2370 hc        1 CPE      0.042405
      7 C3          0.2280   -1.6380    1.7740 c3        1 CPE     -0.097503
      8 H6          1.1110   -2.2220    1.5070 hc        1 CPE      0.052145
      9 H7         -0.3610   -2.2180    2.4910 hc        1 CPE      0.052145
     10 C4          0.6840   -0.2770    2.3420 c3        1 CPE      0.139952
     11 H8          1.7630   -0.2970    2.5160 h1        1 CPE      0.032666
     12 C5          0.3290    0.7840    1.2810 c3        1 CPE     -0.097503
     13 H9         -0.5490    1.3570    1.5870 hc        1 CPE      0.052145
     14 H10         1.1570    1.4770    1.1160 hc        1 CPE      0.052145
     15 O1          0.0000    0.0000    3.5710 oh        1 CPE     -0.599431
     16 H1          0.3970    0.8430    3.9360 ho        1 CPE      0.397581
@<TRIPOS>BOND
     1    1    2 1   
     2    1    3 1   
     3    1    4 1   
     4    1   12 1   
     5    4    5 1   
     6    4    6 1   
     7    4    7 1   
     8    7    8 1   
     9    7    9 1   
    10    7   10 1   
    11   10   11 1   
    12   10   12 1   
    13   10   15 1   
    14   12   13 1   
    15   12   14 1   
    16   15   16 1   
@<TRIPOS>SUBSTRUCTURE
     1 CPE         1 TEMP              0 ****  ****    0 ROOT
