@<TRIPOS>MOLECULE
Cpptraj
   23    22     1     0     0
SMALL
No Charge or Current Charge


@<TRIPOS>ATOM
      1 N1          20.0660    19.9390    38.9000 N.4        1 HAM      -0.839835
      2 H1          19.1440    19.4790    38.9710 H          1 HAM       0.461671
      3 H2          20.1680    20.5420    39.7330 H          1 HAM       0.461671
      4 HN11        20.7840    19.2000    38.9710 H          1 HAM       0.461671
      5 C1          20.2000    20.7310    37.6190 C.3        1 HAM       0.098772
      6 H3          21.1820    21.2120    37.6350 H          1 HAM       0.113668
      7 H4          19.4330    21.5090    37.6350 H          1 HAM       0.113668
      8 C2          20.0550    19.8770    36.3460 C.3        1 HAM      -0.111431
      9 H5          20.8180    19.0940    36.3410 H          1 HAM       0.069681
     10 H6          19.0770    19.3890    36.3410 H          1 HAM       0.069681
     11 C3          20.2040    20.7500    35.0820 C.3        1 HAM      -0.079422
     12 H7          21.1810    21.2390    35.0910 H          1 HAM       0.057684
     13 H8          19.4420    21.5340    35.0910 H          1 HAM       0.057684
     14 C4          20.0600    19.9060    33.7980 C.3        1 HAM      -0.080422
     15 H9          20.8220    19.1220    33.7890 H          1 HAM       0.049686
     16 H10         19.0830    19.4180    33.7890 H          1 HAM       0.049686
     17 C5          20.2090    20.7800    32.5340 C.3        1 HAM      -0.079422
     18 H11         21.1860    21.2690    32.5370 H          1 HAM       0.045687
     19 H12         19.4470    21.5650    32.5370 H          1 HAM       0.045687
     20 C6          20.0660    19.9390    31.2520 C.3        1 HAM      -0.097127
     21 H13         20.8340    19.1640    31.2130 H          1 HAM       0.043688
     22 H14         20.1740    20.5740    30.3700 H          1 HAM       0.043688
     23 H15         19.0850    19.4610    31.2130 H          1 HAM       0.043686
@<TRIPOS>BOND
     1    17    20 1   
     2    14    17 1   
     3    11    14 1   
     4     8    11 1   
     5     5     8 1   
     6     1     5 1   
     7    20    21 1   
     8    20    22 1   
     9    20    23 1   
    10    17    18 1   
    11    17    19 1   
    12    14    15 1   
    13    14    16 1   
    14    11    12 1   
    15    11    13 1   
    16     8     9 1   
    17     8    10 1   
    18     5     6 1   
    19     5     7 1   
    20     1     2 1   
    21     1     3 1   
    22     1     4 1   
@<TRIPOS>SUBSTRUCTURE
     1 HAM         1 TEMP              0 ****  ****    0 ROOT
