@<TRIPOS>MOLECULE
Cpptraj generated mol2 file.
  147   154     7     0     0
SMALL
USER_CHARGES


@<TRIPOS>ATOM
      1 C1         15.8530   15.4140   33.7360 c3         1 MGO      0.304529
      2 H1         14.7770   15.1860   33.6070 h2         1 MGO      0.090782
      3 O1         16.0680   16.8350   34.0390 os         1 MGO     -0.453070
      4 C2         16.3780   14.5790   34.9000 c3         1 MGO      0.092199
      5 H2         16.1740   13.5210   34.7160 h1         1 MGO      0.102926
      6 O2         15.7360   14.9890   36.1200 oh         1 MGO     -0.586639
      7 HO2        15.3300   15.8640   36.0040 ho         1 MGO      0.425065
      8 C3         17.8650   14.7960   35.0890 c3         1 MGO      0.093211
      9 H3         18.0490   15.8330   35.3840 h1         1 MGO      0.064468
     10 O3         18.2850   13.8900   36.1230 oh         1 MGO     -0.592567
     11 HO3        17.5700   13.8700   36.7730 ho         1 MGO      0.421017
     12 C4         18.6100   14.4770   33.8030 c3         1 MGO      0.127621
     13 H4         18.5130   13.4090   33.5910 h1         1 MGO      0.080661
     14 C5         18.0550   15.2880   32.6220 c3         1 MGO      0.104343
     15 H5         18.2050   16.3480   32.8440 h1         1 MGO      0.068516
     16 O5         16.5920   15.0450   32.5130 os         1 MGO     -0.427383
     17 C6         18.7040   15.0440   31.2510 c3         1 MGO      0.141081
     18 H61        19.5500   15.7230   31.1200 h1         1 MGO      0.057384
     19 H62        17.9840   15.2420   30.4550 h1         1 MGO      0.057384
     20 O6         19.1790   13.6960   31.1460 oh         1 MGO     -0.593555
     21 HO6        20.0900   13.6710   31.4670 ho         1 MGO      0.422027
     22 C1         13.9010   20.4110   33.7370 c3         2 MGO      0.304529
     23 H1         13.0510   21.1110   33.6090 h2         2 MGO      0.090782
     24 O1         15.1460   21.1290   34.0400 os         2 MGO     -0.453070
     25 C2         13.5760   19.4800   34.9020 c3         2 MGO      0.092199
     26 H2         12.6210   18.9800   34.7170 h1         2 MGO      0.102926
     27 O2         13.4970   20.2370   36.1200 oh         2 MGO     -0.586639
     28 HO2        13.9270   21.1000   36.0050 ho         2 MGO      0.425065
     29 C3         14.6740   18.4540   35.0890 c3         2 MGO      0.093211
     30 H3         15.6000   18.9550   35.3840 h1         2 MGO      0.064468
     31 O3         14.2270   17.5600   36.1220 oh         2 MGO     -0.592567
     32 HO3        13.7650   18.1070   36.7740 ho         2 MGO      0.421017
     33 C4         14.8880   17.6720   33.8030 c3         2 MGO      0.127621
     34 H4         13.9930   17.0820   33.5910 h1         2 MGO      0.080661
     35 C5         15.1760   18.6110   32.6220 c3         2 MGO      0.104343
     36 H5         16.0960   19.1550   32.8450 h1         2 MGO      0.068516
     37 O5         14.0730   19.6040   32.5140 os         2 MGO     -0.427383
     38 C6         15.3900   17.9530   31.2520 c3         2 MGO      0.141081
     39 H61        16.4470   17.7140   31.1190 h1         2 MGO      0.057384
     40 H62        15.0950   18.6390   30.4550 h1         2 MGO      0.057384
     41 O6         14.6310   16.7410   31.1460 oh         2 MGO     -0.593555
     42 HO6        15.1790   16.0130   31.4670 ho         2 MGO      0.422027
     43 C1         16.5910   25.0540   33.7380 c3         3 MGO      0.304529
     44 H1         16.6090   26.1540   33.6090 h2         3 MGO      0.090782
     45 O1         17.9290   24.5270   34.0400 os         3 MGO     -0.453070
     46 C2         15.6620   24.7270   34.9020 c3         3 MGO      0.092199
     47 H2         14.6750   25.1610   34.7180 h1         3 MGO      0.102926
     48 O2         16.2040   25.2610   36.1210 oh         3 MGO     -0.586639
     49 HO2        17.1470   25.4630   36.0050 ho         3 MGO      0.425065
     50 C3         15.5430   23.2280   35.0900 c3         3 MGO      0.093211
     51 H3         16.5130   22.8180   35.3850 h1         3 MGO      0.064468
     52 O3         14.5670   23.0210   36.1230 oh         3 MGO     -0.592567
     53 HO3        14.7070   23.7230   36.7750 ho         3 MGO      0.421017
     54 C4         15.0650   22.5740   33.8040 c3         3 MGO      0.127621
     55 H4         14.0450   22.9070   33.5920 h1         3 MGO      0.080661
     56 C5         15.9780   22.9350   32.6230 c3         3 MGO      0.104343
     57 H5         16.9780   22.5540   32.8450 h1         3 MGO      0.068516
     58 O5         16.0670   24.4160   32.5150 os         3 MGO     -0.427383
     59 C6         15.5970   22.3570   31.2530 c3         3 MGO      0.141081
     60 H61        16.0690   21.3810   31.1200 h1         3 MGO      0.057384
     61 H62        15.9490   23.0160   30.4550 h1         3 MGO      0.057384
     62 O6         14.1750   22.1950   31.1470 oh         3 MGO     -0.593555
     63 HO6        13.9490   21.3120   31.4680 ho         3 MGO      0.422027
     64 C1         21.8990   25.8440   33.7360 c3         4 MGO      0.304529
     65 H1         22.7690   26.5170   33.6080 h2         4 MGO      0.090782
     66 O1         22.3200   24.4700   34.0390 os         4 MGO     -0.453070
     67 C2         21.0630   26.3680   34.9010 c3         4 MGO      0.092199
     68 H2         20.7880   27.4100   34.7160 h1         4 MGO      0.102926
     69 O2         21.8200   26.2770   36.1200 oh         4 MGO     -0.586639
     70 HO2        22.5660   25.6660   36.0040 ho         4 MGO      0.425065
     71 C3         19.8180   25.5270   35.0890 c3         4 MGO      0.093211
     72 H3         20.1020   24.5130   35.3850 h1         4 MGO      0.064468
     73 O3         19.0470   26.1600   36.1220 oh         4 MGO     -0.592567
     74 HO3        19.6830   26.4890   36.7730 ho         4 MGO      0.421017
     75 C4         19.0080   25.4910   33.8040 c3         4 MGO      0.127621
     76 H4         18.6330   26.4960   33.5910 h1         4 MGO      0.080661
     77 C5         19.8590   25.0020   32.6230 c3         4 MGO      0.104343
     78 H5         20.1840   23.9830   32.8450 h1         4 MGO      0.068516
     79 O5         21.0720   25.8560   32.5140 os         4 MGO     -0.427383
     80 C6         19.1690   24.9400   31.2520 c3         4 MGO      0.141081
     81 H61        18.7010   23.9620   31.1200 h1         4 MGO      0.057384
     82 H62        19.9040   25.0740   30.4550 h1         4 MGO      0.057384
     83 O6         18.1560   25.9490   31.1470 oh         4 MGO     -0.593555
     84 HO6        17.3250   25.5770   31.4690 ho         4 MGO      0.422027
     85 C1         25.8260   22.1880   33.7360 c3         5 MGO      0.304529
     86 H1         26.8940   21.9270   33.6060 h2         5 MGO      0.090782
     87 O1         25.0150   21.0020   34.0390 os         5 MGO     -0.453070
     88 C2         25.7150   23.1680   34.9000 c3         5 MGO      0.092199
     89 H2         26.3580   24.0330   34.7150 h1         5 MGO      0.102926
     90 O2         26.1150   22.5210   36.1190 oh         5 MGO     -0.586639
     91 HO2        26.1020   21.5570   36.0040 ho         5 MGO      0.425065
     92 C3         24.2800   23.6170   35.0880 c3         5 MGO      0.093211
     93 H3         23.6640   22.7630   35.3840 h1         5 MGO      0.064468
     94 O3         24.2940   24.6160   36.1220 oh         5 MGO     -0.592567
     95 HO3        24.9480   24.3230   36.7720 ho         5 MGO      0.421017
     96 C4         23.7480   24.2290   33.8030 c3         5 MGO      0.127621
     97 H4         24.2980   25.1480   33.5900 h1         5 MGO      0.080661
     98 C5         23.8950   23.2560   32.6220 c3         5 MGO      0.104343
     99 H5         23.3020   22.3680   32.8450 h1         5 MGO      0.068516
    100 O5         25.3200   22.8410   32.5130 os         5 MGO     -0.427383
    101 C6         23.4160   23.7580   31.2510 c3         5 MGO      0.141081
    102 H61        22.3600   23.5140   31.1190 h1         5 MGO      0.057384
    103 H62        23.9790   23.2670   30.4540 h1         5 MGO      0.057384
    104 O6         23.5740   25.1790   31.1450 oh         5 MGO     -0.593555
    105 HO6        22.7650   25.5960   31.4680 ho         5 MGO      0.422027
    106 C1         25.4160   16.8380   33.7370 c3         6 MGO      0.304529
    107 H1         25.8780   15.8400   33.6090 h2         6 MGO      0.090782
    108 O1         23.9820   16.7320   34.0390 os         6 MGO     -0.453070
    109 C2         26.1120   17.5370   34.9010 c3         6 MGO      0.092199
    110 H2         27.1900   17.5730   34.7170 h1         6 MGO      0.102926
    111 O2         25.8550   16.8200   36.1200 oh         6 MGO     -0.586639
    112 HO2        25.0940   16.2290   36.0050 ho         6 MGO      0.425065
    113 C3         25.5690   18.9380   35.0900 c3         6 MGO      0.093211
    114 H3         24.5170   18.8860   35.3850 h1         6 MGO      0.064468
    115 O3         26.3580   19.5490   36.1230 oh         6 MGO     -0.592567
    116 HO3        26.5370   18.8560   36.7740 ho         6 MGO      0.421017
    117 C4         25.7160   19.7350   33.8030 c3         6 MGO      0.127621
    118 H4         26.7780   19.8780   33.5910 h1         6 MGO      0.080661
    119 C5         25.0480   19.0130   32.6230 c3         6 MGO      0.104343
    120 H5         23.9830   18.9230   32.8440 h1         6 MGO      0.068516
    121 O5         25.6110   17.6400   32.5140 os         6 MGO     -0.427383
    122 C6         25.1420   19.6990   31.2520 c3         6 MGO      0.141081
    123 H61        24.2930   20.3730   31.1190 h1         6 MGO      0.057384
    124 H62        25.1090   18.9520   30.4550 h1         6 MGO      0.057384
    125 O6         26.3510   20.4620   31.1460 oh         6 MGO     -0.593555
    126 HO6        26.1720   21.3560   31.4670 ho         6 MGO      0.422027
    127 C1         20.9760   13.8230   33.7370 c3         7 MGO      0.304529
    128 H1         20.4840   12.8400   33.6080 h2         7 MGO      0.090782
    129 O1         20.0010   14.8780   34.0390 os         7 MGO     -0.453070
    130 C2         21.9570   13.7130   34.9020 c3         7 MGO      0.092199
    131 H2         22.6570   12.8940   34.7170 h1         7 MGO      0.102926
    132 O2         21.2360   13.4690   36.1200 oh         7 MGO     -0.586639
    133 HO2        20.2990   13.6950   36.0050 ho         7 MGO      0.425065
    134 C3         22.7140   15.0120   35.0900 c3         7 MGO      0.093211
    135 H3         22.0180   15.8030   35.3850 h1         7 MGO      0.064468
    136 O3         23.6840   14.7770   36.1240 oh         7 MGO     -0.592567
    137 HO3        23.2540   14.2050   36.7740 ho         7 MGO      0.421017
    138 C4         23.4290   15.3960   33.8040 c3         7 MGO      0.127621
    139 H4         24.2030   14.6530   33.5920 h1         7 MGO      0.080661
    140 C5         22.4490   15.4670   32.6220 c3         7 MGO      0.104343
    141 H5         21.7140   16.2440   32.8450 h1         7 MGO      0.068516
    142 O5         21.7270   14.1710   32.5150 os         7 MGO     -0.427383
    143 C6         23.0440   15.8220   31.2520 c3         7 MGO      0.141081
    144 H61        23.0420   16.9060   31.1190 h1         7 MGO      0.057384
    145 H62        22.4400   15.3820   30.4550 h1         7 MGO      0.057384
    146 O6         24.3950   15.3510   31.1470 oh         7 MGO     -0.593555
    147 HO6        24.9820   16.0480   31.4690 ho         7 MGO      0.422027
@<TRIPOS>BOND
    1    17    20 1
    2    14    16 1
    3    14    17 1
    4    12    14 1
    5    12   129 1
    6     8    10 1
    7     8    12 1
    8     4     6 1
    9     4     8 1
   10     3    33 1
   11     1     3 1
   12     1     4 1
   13     1    16 1
   14    38    41 1
   15    35    37 1
   16    35    38 1
   17    33    35 1
   18    29    31 1
   19    29    33 1
   20    25    27 1
   21    25    29 1
   22    24    54 1
   23    22    24 1
   24    22    25 1
   25    22    37 1
   26    59    62 1
   27    56    58 1
   28    56    59 1
   29    54    56 1
   30    50    52 1
   31    50    54 1
   32    46    48 1
   33    46    50 1
   34    45    75 1
   35    43    45 1
   36    43    46 1
   37    43    58 1
   38    80    83 1
   39    77    79 1
   40    77    80 1
   41    75    77 1
   42    71    73 1
   43    71    75 1
   44    67    69 1
   45    67    71 1
   46    66    96 1
   47    64    66 1
   48    64    67 1
   49    64    79 1
   50   101   104 1
   51    98   100 1
   52    98   101 1
   53    96    98 1
   54    92    94 1
   55    92    96 1
   56    88    90 1
   57    88    92 1
   58    87   117 1
   59    85    87 1
   60    85    88 1
   61    85   100 1
   62   122   125 1
   63   119   121 1
   64   119   122 1
   65   117   119 1
   66   113   115 1
   67   113   117 1
   68   109   111 1
   69   109   113 1
   70   108   138 1
   71   106   108 1
   72   106   109 1
   73   106   121 1
   74   143   146 1
   75   140   142 1
   76   140   143 1
   77   138   140 1
   78   134   136 1
   79   134   138 1
   80   130   132 1
   81   130   134 1
   82   127   129 1
   83   127   130 1
   84   127   142 1
   85    20    21 1
   86    17    18 1
   87    17    19 1
   88    14    15 1
   89    12    13 1
   90    10    11 1
   91     8     9 1
   92     6     7 1
   93     4     5 1
   94     1     2 1
   95    41    42 1
   96    38    39 1
   97    38    40 1
   98    35    36 1
   99    33    34 1
  100    31    32 1
  101    29    30 1
  102    27    28 1
  103    25    26 1
  104    22    23 1
  105    62    63 1
  106    59    60 1
  107    59    61 1
  108    56    57 1
  109    54    55 1
  110    52    53 1
  111    50    51 1
  112    48    49 1
  113    46    47 1
  114    43    44 1
  115    83    84 1
  116    80    81 1
  117    80    82 1
  118    77    78 1
  119    75    76 1
  120    73    74 1
  121    71    72 1
  122    69    70 1
  123    67    68 1
  124    64    65 1
  125   104   105 1
  126   101   102 1
  127   101   103 1
  128    98    99 1
  129    96    97 1
  130    94    95 1
  131    92    93 1
  132    90    91 1
  133    88    89 1
  134    85    86 1
  135   125   126 1
  136   122   123 1
  137   122   124 1
  138   119   120 1
  139   117   118 1
  140   115   116 1
  141   113   114 1
  142   111   112 1
  143   109   110 1
  144   106   107 1
  145   146   147 1
  146   143   144 1
  147   143   145 1
  148   140   141 1
  149   138   139 1
  150   136   137 1
  151   134   135 1
  152   132   133 1
  153   130   131 1
  154   127   128 1
@<TRIPOS>SUBSTRUCTURE
      1 MGO               1 ****               0 ****  **** 
      2 MGO              22 ****               0 ****  **** 
      3 MGO              43 ****               0 ****  **** 
      4 MGO              64 ****               0 ****  **** 
      5 MGO              85 ****               0 ****  **** 
      6 MGO             106 ****               0 ****  **** 
      7 MGO             127 ****               0 ****  **** 
